/batch
/config,noeldb,1     ! force off writing results to database
*get,_wallstrt,active,,time,wall
! ANSYS input file written by Workbench version 2020 R2
! File used for geometry attach: C:\Users\shohei\Downloads\fem-izumi\5-5\beam1_files\dp0\SYS-2\DM\SYS-2.agdb
/title,beam1--Static Structural (C5)
*DIM,_wb_ProjectScratch_dir,string,248
_wb_ProjectScratch_dir(1) = 'C:\Users\shohei\Downloads\fem-izumi\5-5\_ProjectScratch\Scr9BFF\'
*DIM,_wb_SolverFiles_dir,string,248
_wb_SolverFiles_dir(1) = 'C:\Users\shohei\Downloads\fem-izumi\5-5\beam1_files\dp0\SYS-2\MECH\'
*DIM,_wb_userfiles_dir,string,248
_wb_userfiles_dir(1) = 'C:\Users\shohei\Downloads\fem-izumi\5-5\beam1_files\user_files\'
/com,--- Data in consistent NMM units. See Solving Units in the help system for more information.
/units,MPA
/nopr
/wb,file,start              !  signify a WB generated input file
/prep7
! Turn off shape checking because checks already performed inside WB mesher.
! See help system for more information.
SHPP,OFF,,NOWARN
/nolist
etcon,set             ! allow ANSYS to choose best KEYOP's for 180x elements
/com,*********** Nodes for the whole assembly ***********
nblock,3,,7532
(1i9,3e20.9e3)
        1     9.500000000E+00    -1.800000000E+01     5.000000000E+00
        2     9.500000000E+00    -1.337500000E+01     5.000000000E+00
        3     9.500000000E+00    -8.750000000E+00     5.000000000E+00
        4     9.500000000E+00    -4.125000000E+00     5.000000000E+00
        5     9.500000000E+00     5.000000000E-01     5.000000000E+00
        6     9.500000000E+00     5.125000000E+00     5.000000000E+00
        7     9.500000000E+00     9.750000000E+00     5.000000000E+00
        8     9.500000000E+00     1.437500000E+01     5.000000000E+00
        9     9.500000000E+00    -1.800000000E+01     1.000000000E+01
       10     9.500000000E+00    -1.337500000E+01     1.000000000E+01
       11     9.500000000E+00    -8.750000000E+00     1.000000000E+01
       12     9.500000000E+00    -4.125000000E+00     1.000000000E+01
       13     9.500000000E+00     5.000000000E-01     1.000000000E+01
       14     9.500000000E+00     5.125000000E+00     1.000000000E+01
       15     9.500000000E+00     9.750000000E+00     1.000000000E+01
       16     9.500000000E+00     1.437500000E+01     1.000000000E+01
       17     9.500000000E+00    -1.800000000E+01     1.500000000E+01
       18     9.500000000E+00    -1.337500000E+01     1.500000000E+01
       19     9.500000000E+00    -8.750000000E+00     1.500000000E+01
       20     9.500000000E+00    -4.125000000E+00     1.500000000E+01
! ... 6829 like lines cut
/com,*********** Nodes for all Remote Points ***********
nblock,3
(1i9,3e20.9e3)
    15514     0.000000000E+00    -1.899999939E+01     0.000000000E+00
    15515     0.000000000E+00    -1.899999939E+01     5.000000000E+02
-1
/wb,elem,start            !  set before creation of elements
/com,*********** Elements for Body 1 "Solid" ***********
et,1,186
keyo,1,2,1          ! set full integration on SOLID186
eblock,19,solid,,900
(19i9)
        1        1        1        1        0        0        0        0       20        0        1      792     1811     1813     1965      793     1799     1800     1640
     4502     6641     6643     4503     4507     6625     6307     4506     4501     6626     6627     6308
        1        1        1        1        0        0        0        0       20        0        2      784      792     1965     1966      801      793     1640     1639
     4476     4503     6795     4478     4505     4506     6305     4531     4477     4501     6308     6306
        1        1        1        1        0        0        0        0       20        0        3      776      784     1966     1967      809      801     1639     1638
     4451     4478     6796     4453     4530     4531     6303     4548     4452     4477     6306     6304
        1        1        1        1        0        0        0        0       20        0        4      768      776     1967     1968      817      809     1638     1637
     4426     4453     6797     4428     4547     4548     6301     4565     4427     4452     6304     6302
        1        1        1        1        0        0        0        0       20        0        5      760      768     1968     1969      825      817     1637     1636
     4401     4428     6798     4403     4564     4565     6299     4582     4402     4427     6302     6300
        1        1        1        1        0        0        0        0       20        0        6      752      760     1969     1970      833      825     1636     1635
     4376     4403     6799     4378     4581     4582     6297     4599     4377     4402     6300     6298
        1        1        1        1        0        0        0        0       20        0        7      744      752     1970     1971      841      833     1635     1634
     4351     4378     6800     4353     4598     4599     6295     4616     4352     4377     6298     6296
        1        1        1        1        0        0        0        0       20        0        8      736      744     1971     1972      849      841     1634     1633
     4326     4353     6801     4328     4615     4616     6293     4633     4327     4352     6296     6294
        1        1        1        1        0        0        0        0       20        0        9      728      736     1972     1973      857      849     1633     1632
     4301     4328     6802     4303     4632     4633     6291     4650     4302     4327     6294     6292
        1        1        1        1        0        0        0        0       20        0       10      720      728     1973     1974      865      857     1632     1631
     4276     4303     6803     4278     4649     4650     6289     4667     4277     4302     6292     6290
! ... 1781 like lines cut
!Material Id = {B103596B-E73B-42F5-AA4D-EE703B523ADA}
/wb,elem,end               !  done creating elements
/com,*********** Send User Defined Coordinate System(s) ***********
csys,0
toffst,273.15,  ! Temperature offset from absolute zero
/com,*********** Set Reference Temperature ***********
tref,22.
/wb,mat,start              !  starting to send materials
/com,*********** Send Materials ***********
MP,EX,1,205000,	! tonne s^-2 mm^-1
MP,NUXY,1,0.3,

/wb,mat,end                !  done sending materials
!************************* Model Summary ********************
!Solid,	S45C,	matid,	1
!************************* End Model Summary ********************
! get the diagonal of the bounding box. Needed later for other things
*get,_xmin,node,,mnloc,x
*get,_ymin,node,,mnloc,y
*get,_zmin,node,,mnloc,z
*get,_xmax,node,,mxloc,x
*get,_ymax,node,,mxloc,y
*get,_zmax,node,,mxloc,z
_ASMDIAG=(_xmax-_xmin)*(_xmax-_xmin)+(_ymax-_ymin)*(_ymax-_ymin)+(_zmax-_zmin)*(_zmax-_zmin)
_ASMDIAG=SQRT(_ASMDIAG)
/wb,contact,start          !  starting to send contact
/wb,contact,end            !  done creating contacts
/golist
/wb,load,start             !  starting to send loads
/com,*********** Define Force Using Surface Effect Elements ***********
local,12,0,0.,0.,0.,0.,0.,0.
csys,0
et,2,156
keyop,2,5,1         !  No orientation node
eblock,10,,,1
(15i9)
    12405        2        2        2       12     1864     1791     6610
-1
esel,s,type,,2
keyop,2,2,1                ! Apply load in local coordinate system
keyop,2,7,1                ! Use original area so load is constant in large deformation
esel,all
/com,*********** Create Remote Point "Internal Remote Point" ***********
! -------- Remote Point Used by "Remote Displacement" --------
*set,tid,4
*set,cid,3
et,cid,174
et,tid,170
keyo,tid,2,1               ! Don't fix the pilot node
keyo,tid,4,111111
keyo,cid,12,5              ! Bonded Contact 
keyo,cid,4,1               ! Deformable RBE3 style load
keyo,cid,2,2               ! MPC style contact
eblock,10,,,8
(15i9)
    12406        3        3        3        0     1863     2020     1591     1741     6694     6209     6208     6511
    12407        3        3        3        0     2020     2019     1590     1591     6848     6207     6206     6209
    12408        3        3        3        0     2019     2018     1589     1590     6847     6205     6204     6207
    12409        3        3        3        0     2018     2017     1588     1589     6846     6203     6202     6205
    12410        3        3        3        0     2017     2016     1587     1588     6845     6201     6200     6203
    12411        3        3        3        0     2016     2015     1586     1587     6844     6199     6198     6201
    12412        3        3        3        0     2015     2014     1585     1586     6843     6197     6195     6199
    12413        3        3        3        0     2014     1803     1802     1585     6632     6630     6196     6197
-1
*set,_npilot,15514
_npilot78=_npilot
type,tid
mat ,cid
real,cid
tshape,pilo
en,12414,_npilot
tshape
/com,*********** Create Remote Point "Internal Remote Point 2" ***********
! -------- Remote Point Used by "Remote Displacement 2" --------
*set,tid,6
*set,cid,5
et,cid,174
et,tid,170
keyo,tid,2,1               ! Don't fix the pilot node
keyo,tid,4,111111
keyo,cid,12,5              ! Bonded Contact 
keyo,cid,4,1               ! Deformable RBE3 style load
keyo,cid,2,2               ! MPC style contact
eblock,10,,,8
(15i9)
    12415        5        5        5        0     1805     1793     1792     1812     6614     6611     6612     6635
    12416        5        5        5        0     1806     1794     1793     1805     6616     6613     6614     6634
    12417        5        5        5        0     1807     1795     1794     1806     6618     6615     6616     6636
    12418        5        5        5        0     1808     1796     1795     1807     6620     6617     6618     6637
    12419        5        5        5        0     1809     1797     1796     1808     6622     6619     6620     6638
    12420        5        5        5        0     1810     1798     1797     1809     6624     6621     6622     6639
    12421        5        5        5        0     1811     1799     1798     1810     6626     6623     6624     6640
    12422        5        5        5        0     1813     1800     1799     1811     6627     6625     6626     6641
-1
*set,_npilot,15515
_npilot81=_npilot
type,tid
mat ,cid
real,cid
tshape,pilo
en,12423,_npilot
tshape
/com,*********** Construct Remote Displacement ***********
/com,*********** Construct Remote Displacement ***********

/COM,*** Create a component for all remote displacements ***
CMBLOCK,REMOTEDISPALL,NODE,        2
(8i10)
     15514     15515

/gst,on,on
fini
*get,_numnode,node,0,count
*get,_numelem,elem,0,count
*get, _MAXELEMNUM, elem, 0, NUM, MAX
*get, _MAXNODENUM, node, 0, NUM, MAX
*get, _MAXELEMTYPE, etyp, 0, NUM, MAX
*get, _MAXREALCONST, real, 0, NUM, MAX
/go
/wb,load,end               !  done creating loads
/com,--- Number of total nodes = %_numnode%
/com,--- Number of contact elements = 17
/com,--- Number of spring elements = 0
/com,--- Number of bearing elements = 0
/com,--- Number of solid elements = 900
/com,--- Number of condensed parts = 0
/com,--- Number of total elements = %_numelem%
*get,_wallbsol,active,,time,wall
/com,****************************************************************************
/com,*************************    SOLUTION       ********************************
/com,****************************************************************************
/solu
antype,0                   ! static analysis
_thickRatio=  0     ! Ratio of thick parts in the model
eqsl,sparse,,,,,1
cntr,print,1               ! print out contact info and also make no initial contact an error
dmpoption,emat,no             ! Don't combine emat file for DANSYS
dmpoption,esav,no             ! Don't combine esav file for DANSYS
nldiag,cont,iter           ! print out contact info each equilibrium iteration
rescontrol,,none                 ! Do not keep any restart files
/com,****************************************************
/com,******************* SOLVE FOR LS 1 OF 1 ****************
esel,s,type,,2
nsle
sfe,all,1,pres,1,0.
sfe,all,2,pres,1,-526.315789473684
sfe,all,3,pres,1,0.
nsel,all
esel,all
d,15514,ux,0.
d,15514,uy,0.
d,15514,uz,0.
d,15514,roty,0.
d,15514,rotz,0.
d,15515,ux,0.
d,15515,uy,0.
d,15515,uz,0.
/nopr
/gopr
nsub,1,1,1
time,1.
outres,erase
outres,all,none
outres,nsol,all,
outres,rsol,all
outres,eangl,all
outres,etmp,all
outres,veng,all
outres,strs,all,
outres,epel,all,
outres,eppl,all,
outres,cont,all,
! *********** WB SOLVE COMMAND ***********
! check interactive state
*get,ANSINTER_,active,,int
*if,ANSINTER_,ne,0,then
/eof
*endif
solve
/com *************** Write FE CONNECTORS ********* 
CEWRITE,file,ce,,INTE
/com,****************************************************
/com,*************** FINISHED SOLVE FOR LS 1 *************
*get,_wallasol,active,,time,wall
/nopr
*get,_numnode,node,0,count
*get,_numelem,elem,0,count
*get, _MAXELEMNUM, elem, 0, NUM, MAX
*get, _MAXNODENUM, node, 0, NUM, MAX,,,INTERNAL
*get, _MAXELEMTYPE, etyp, 0, NUM, MAX
*get, _MAXREALCONST, real, 0, NUM, MAX
/gopr
/post1
xmlo,ENCODING,ISO-8859-1
xmlo,parm
/xml,parm,xml
fini
/gopr
*get,_walldone,active,,time,wall
_preptime=(_wallbsol-_wallstrt)*3600
_solvtime=(_wallasol-_wallbsol)*3600
_posttime=(_walldone-_wallasol)*3600
_totaltim=(_walldone-_wallstrt)*3600
*get,_dlbratio,active,0,solu,dlbr
*get,_combtime,active,0,solu,comb
/com,--- Total number of nodes = %_numnode%
/com,--- Total number of elements = %_numelem%
/com,--- Element load balance ratio = %_dlbratio%
/com,--- Time to combine distributed files = %_combtime%
/wb,file,end               ! done with WB generated input
