/batch
/config,noeldb,1     ! force off writing results to database
*get,_wallstrt,active,,time,wall
! ANSYS input file written by Workbench version 2020 R2
! File used for geometry attach: C:\Users\shohei\Downloads\fem-izumi\5-3-5\fluid pipe_files\dp0\SYS\DM\SYS.agdb
/title,fluid pipe--Static Structural (A5)
*DIM,_wb_ProjectScratch_dir,string,248
_wb_ProjectScratch_dir(1) = 'C:\Users\shohei\Downloads\fem-izumi\5-3-5\_ProjectScratch\Scr8533\'
*DIM,_wb_SolverFiles_dir,string,248
_wb_SolverFiles_dir(1) = 'C:\Users\shohei\Downloads\fem-izumi\5-3-5\fluid pipe_files\dp0\SYS\MECH\'
*DIM,_wb_userfiles_dir,string,248
_wb_userfiles_dir(1) = 'C:\Users\shohei\Downloads\fem-izumi\5-3-5\fluid pipe_files\user_files\'
/com,--- Data in consistent NMM units. See Solving Units in the help system for more information.
/units,MPA
/nopr
/wb,file,start              !  signify a WB generated input file
/prep7
! Turn off shape checking because checks already performed inside WB mesher.
! See help system for more information.
SHPP,OFF,,NOWARN
/nolist
etcon,set             ! allow ANSYS to choose best KEYOP's for 180x elements
/com,*********** Nodes for the whole assembly ***********
nblock,3,,3049
(1i9,3e20.9e3)
        1     6.988893199E+00     1.011199687E+00     0.000000000E+00
        2     5.974410528E+00     2.736015405E+00     0.000000000E+00
        3     5.084361524E+00     3.422744637E+00     0.000000000E+00
        4     5.209792447E+00     3.543840930E+00     0.000000000E+00
        5     7.206227288E+00     2.092356123E+00     0.000000000E+00
        6     7.290644822E+00     1.944761491E+00     0.000000000E+00
        7     7.375310950E+00     1.792654795E+00     0.000000000E+00
        8     6.639835531E+00     2.729717672E+00     0.000000000E+00
        9     6.124258268E+00     3.016217207E+00     0.000000000E+00
       10     4.939505802E+00     3.383425821E+00     0.000000000E+00
       11     1.597693037E+00     3.403139745E+00     0.000000000E+00
       12     1.613108874E+00     3.603118563E+00     0.000000000E+00
       13     7.076670381E+00     2.194989933E+00     0.000000000E+00
       14     7.095216901E+00     1.887996134E+00     0.000000000E+00
       15     7.713478863E+00     1.321754506E+00     0.000000000E+00
       16     7.849018739E+00     1.464809995E+00     0.000000000E+00
       17     2.014021449E+00     3.602479886E+00     0.000000000E+00
       18     2.416565955E+00     3.601643527E+00     0.000000000E+00
       19     2.819508447E+00     3.601994347E+00     0.000000000E+00
       20     3.018487007E+00     3.601745910E+00     0.000000000E+00
! ... 2753 like lines cut
/wb,elem,start            !  set before creation of elements
/com,*********** Elements for Body 1 "Surface Body" ***********
et,1,183
keyo,1,3,2
eblock,19,solid,,875
(19i9)
        1        1        1        1        0        0        0        0        8        0      843       27        3        4        4     1066     1064        4     1068
        1        1        1        1        0        0        0        0        8        0      844      587       42      641      641     1195     1196      641     2337
        1        1        1        1        0        0        0        0        8        0      845       16       70      614      614     1110     1266      614     1112
        1        1        1        1        0        0        0        0        8        0      846      117       64      614      614     1251     1253      614     1392
        1        1        1        1        0        0        0        0        8        0        1      799      744      497      741     2388     2499     2475     2386
        1        1        1        1        0        0        0        0        8        0        2      730      498      744      799     2396     2496     2388     2387
        1        1        1        1        0        0        0        0        8        0        3      798      746      499      731     2392     2515     2397     2390
        1        1        1        1        0        0        0        0        8        0        4      748      500      746      798     2407     2512     2392     2391
        1        1        1        1        0        0        0        0        8        0        5      797      745      498      730     2399     2507     2396     2395
        1        1        1        1        0        0        0        0        8        0        6      731      499      745      797     2397     2504     2399     2398
        1        1        1        1        0        0        0        0        8        0        7      796      749      501      732     2403     2531     2408     2401
        1        1        1        1        0        0        0        0        8        0        8      733      502      749      796     2418     2528     2403     2402
        1        1        1        1        0        0        0        0        8        0        9      795      747      500      748     2410     2523     2407     2406
        1        1        1        1        0        0        0        0        8        0       10      732      501      747      795     2408     2520     2410     2409
        1        1        1        1        0        0        0        0        8        0       11      794      751      503      734     2414     2547     2419     2412
        1        1        1        1        0        0        0        0        8        0       12      753      504      751      794     2429     2544     2414     2413
        1        1        1        1        0        0        0        0        8        0       13      793      750      502      733     2421     2539     2418     2417
        1        1        1        1        0        0        0        0        8        0       14      734      503      750      793     2419     2536     2421     2420
        1        1        1        1        0        0        0        0        8        0       15      792      754      505      735     2425     2563     2430     2423
        1        1        1        1        0        0        0        0        8        0       16      736      506      754      792     2440     2560     2425     2424
! ... 856 like lines cut
!Material Id = {E9C1E139-5FFF-41E1-B84D-52456C8F96F0}
/wb,elem,end               !  done creating elements
/com,*********** Send User Defined Coordinate System(s) ***********
csys,0
toffst,273.15,  ! Temperature offset from absolute zero
/com,*********** Set Reference Temperature ***********
tref,22.
/wb,mat,start              !  starting to send materials
/com,*********** Send Materials ***********
MP,EX,1,68900,	! tonne s^-2 mm^-1
MP,NUXY,1,0.33,

/wb,mat,end                !  done sending materials
/com,*********** Send Sheet Properties ***********
!************************* Model Summary ********************
!Surface Body,	Aluminum,	matid,	1
!************************* End Model Summary ********************
! get the diagonal of the bounding box. Needed later for other things
*get,_xmin,node,,mnloc,x
*get,_ymin,node,,mnloc,y
*get,_zmin,node,,mnloc,z
*get,_xmax,node,,mxloc,x
*get,_ymax,node,,mxloc,y
*get,_zmax,node,,mxloc,z
_ASMDIAG=(_xmax-_xmin)*(_xmax-_xmin)+(_ymax-_ymin)*(_ymax-_ymin)+(_zmax-_zmin)*(_zmax-_zmin)
_ASMDIAG=SQRT(_ASMDIAG)
/wb,contact,start          !  starting to send contact
/wb,contact,end            !  done creating contacts
/golist
/wb,load,start             !  starting to send loads
/com,********* Frictionless Supports X *********
CMBLOCK,_FRICSUX,NODE,       31
(8i10)
       842       843       844       845       846       847       848       849
       850       851       852       853       854       855       856       878
      2683      2684      2685      2686      2687      2688      2689      2690
      2691      2692      2693      2694      2695      2697      2718
cmsel,s,_FRICSUX
d,all,ux,0
nsel,all
/com,********* Frictionless Supports Y *********
CMBLOCK,_FRICSUY,NODE,       35
(8i10)
       801       818       918       919       920       921       922       923
       924       925       926       927       928       929       930       931
       932       949      2658      2659      2661      2662      2759      2760
      2761      2762      2763      2764      2765      2766      2767      2768
      2769      2770      2772
cmsel,s,_FRICSUY
d,all,uy,0
nsel,all
/com,********** Rotational Supports Z **********
CMBLOCK,_ROTSUZ ,NODE,       66
(8i10)
       801       818       842       843       844       845       846       847
       848       849       850       851       852       853       854       855
       856       878       918       919       920       921       922       923
       924       925       926       927       928       929       930       931
       932       949      2658      2659      2661      2662      2683      2684
      2685      2686      2687      2688      2689      2690      2691      2692
      2693      2694      2695      2697      2718      2759      2760      2761
      2762      2763      2764      2765      2766      2767      2768      2769
      2770      2772
cmsel,s,_ROTSUZ
d,all,rotz,0
nsel,all
/com,*********** Define Pressure Using Surface Effect Elements ***********
et,2,153
keyop,2,3,10        ! get plane stress option and thickness from underlying element
eblock,10,,,57
(15i9)
      876        2        2        2        0      816      841     2626
      877        2        2        2        0      948      816     2625
      878        2        2        2        0      841      800     2623
      879        2        2        2        0      820      856     2696
      880        2        2        2        0      821      820     2663
      881        2        2        2        0      822      821     2664
      882        2        2        2        0      823      822     2665
      883        2        2        2        0      824      823     2666
      884        2        2        2        0      825      824     2667
      885        2        2        2        0      826      825     2668
      886        2        2        2        0      827      826     2669
      887        2        2        2        0      828      827     2670
      888        2        2        2        0      829      828     2671
      889        2        2        2        0      830      829     2672
      890        2        2        2        0      831      830     2673
      891        2        2        2        0      832      831     2674
      892        2        2        2        0      833      832     2675
      893        2        2        2        0      834      833     2676
      894        2        2        2        0      835      834     2677
      895        2        2        2        0      836      835     2678
! ... 38 like lines cut
esel,s,type,,2
keyop,2,7,0                ! Use deformed area for application of load
esel,all
esel,all
/gst,on,on
fini
*get,_numnode,node,0,count
*get,_numelem,elem,0,count
*get, _MAXELEMNUM, elem, 0, NUM, MAX
*get, _MAXNODENUM, node, 0, NUM, MAX
*get, _MAXELEMTYPE, etyp, 0, NUM, MAX
*get, _MAXREALCONST, real, 0, NUM, MAX
/go
/wb,load,end               !  done creating loads
/com,--- Number of total nodes = %_numnode%
/com,--- Number of contact elements = 57
/com,--- Number of spring elements = 0
/com,--- Number of bearing elements = 0
/com,--- Number of solid elements = 875
/com,--- Number of condensed parts = 0
/com,--- Number of total elements = %_numelem%
*get,_wallbsol,active,,time,wall
/com,****************************************************************************
/com,*************************    SOLUTION       ********************************
/com,****************************************************************************
/solu
antype,0                   ! static analysis
_thickRatio=  0     ! Ratio of thick parts in the model
eqsl,sparse,,,,,1
cntr,print,1               ! print out contact info and also make no initial contact an error
dmpoption,emat,no             ! Don't combine emat file for DANSYS
dmpoption,esav,no             ! Don't combine esav file for DANSYS
nldiag,cont,iter           ! print out contact info each equilibrium iteration
rescontrol,,none                 ! Do not keep any restart files
/com,****************************************************
/com,******************* SOLVE FOR LS 1 OF 1 ****************
esel,s,type,,2
nsle
sf,all,pres,4.
nsel,all
esel,all
esel,all
/nopr
/gopr
nsub,1,1,1
time,1.
outres,erase
outres,all,none
outres,nsol,all,
outres,rsol,all
outres,eangl,all
outres,etmp,all
outres,veng,all
outres,strs,all,
outres,epel,all,
outres,eppl,all,
outres,cont,all,
! *********** WB SOLVE COMMAND ***********
! check interactive state
*get,ANSINTER_,active,,int
*if,ANSINTER_,ne,0,then
/eof
*endif
solve
/com *************** Write FE CONNECTORS ********* 
CEWRITE,file,ce,,INTE
/com,****************************************************
/com,*************** FINISHED SOLVE FOR LS 1 *************
*get,_wallasol,active,,time,wall
/nopr
*get,_numnode,node,0,count
*get,_numelem,elem,0,count
*get, _MAXELEMNUM, elem, 0, NUM, MAX
*get, _MAXNODENUM, node, 0, NUM, MAX,,,INTERNAL
*get, _MAXELEMTYPE, etyp, 0, NUM, MAX
*get, _MAXREALCONST, real, 0, NUM, MAX
/gopr
/post1
xmlo,ENCODING,ISO-8859-1
xmlo,parm
/xml,parm,xml
fini
/gopr
*get,_walldone,active,,time,wall
_preptime=(_wallbsol-_wallstrt)*3600
_solvtime=(_wallasol-_wallbsol)*3600
_posttime=(_walldone-_wallasol)*3600
_totaltim=(_walldone-_wallstrt)*3600
*get,_dlbratio,active,0,solu,dlbr
*get,_combtime,active,0,solu,comb
/com,--- Total number of nodes = %_numnode%
/com,--- Total number of elements = %_numelem%
/com,--- Element load balance ratio = %_dlbratio%
/com,--- Time to combine distributed files = %_combtime%
/wb,file,end               ! done with WB generated input
