/batch
/config,noeldb,1     ! force off writing results to database
*get,_wallstrt,active,,time,wall
! ANSYS input file written by Workbench version 2020 R2
! File used for geometry attach: C:\Users\shohei\Downloads\fem-izumi\5-3-3\staged bar bending_files\dp0\SYS\DM\SYS.agdb
/title,staged bar bending--Static Structural (A5)
*DIM,_wb_ProjectScratch_dir,string,248
_wb_ProjectScratch_dir(1) = 'C:\Users\shohei\Downloads\fem-izumi\5-3-3\_ProjectScratch\ScrCC5A\'
*DIM,_wb_SolverFiles_dir,string,248
_wb_SolverFiles_dir(1) = 'C:\Users\shohei\Downloads\fem-izumi\5-3-3\staged bar bending_files\dp0\SYS\MECH\'
*DIM,_wb_userfiles_dir,string,248
_wb_userfiles_dir(1) = 'C:\Users\shohei\Downloads\fem-izumi\5-3-3\staged bar bending_files\user_files\'
/com,--- Data in consistent NMM units. See Solving Units in the help system for more information.
/units,MPA
/nopr
/wb,file,start              !  signify a WB generated input file
/prep7
! Turn off shape checking because checks already performed inside WB mesher.
! See help system for more information.
SHPP,OFF,,NOWARN
/nolist
etcon,set             ! allow ANSYS to choose best KEYOP's for 180x elements
/com,*********** Nodes for the whole assembly ***********
nblock,3,,16797
(1i9,3e20.9e3)
        1    -6.787908956E+01     1.490360744E+01     0.000000000E+00
        2    -7.813806414E+01     1.361812540E+01     0.000000000E+00
        3    -6.138650934E+01     6.618862873E+00     0.000000000E+00
        4    -7.088878527E+01     1.517012085E+01     0.000000000E+00
        5    -7.186619983E+01     1.536528222E+01     0.000000000E+00
        6    -7.016477567E+01     1.476676118E+01     0.000000000E+00
        7    -6.532821251E+01     1.071631819E+01     0.000000000E+00
        8    -6.066799443E+01     6.077662884E+00     0.000000000E+00
        9    -6.012664153E+01     5.245760053E+00     0.000000000E+00
       10    -7.998426643E+01     1.461178439E+01     0.000000000E+00
       11    -6.097783380E+01     1.665200937E+00     0.000000000E+00
       12    -6.119251330E+01     3.635186279E+00     0.000000000E+00
       13    -6.219182908E+01     5.118892556E+00     0.000000000E+00
       14    -6.286172037E+01     6.495170804E+00     0.000000000E+00
       15    -6.359571772E+01     7.931768619E+00     0.000000000E+00
       16    -6.688556102E+01     1.159953941E+01     0.000000000E+00
       17    -6.827290420E+01     1.253898425E+01     0.000000000E+00
       18    -6.984126434E+01     1.307072026E+01     0.000000000E+00
       19    -7.152268065E+01     1.335390295E+01     0.000000000E+00
       20    -7.316824170E+01     1.410722248E+01     0.000000000E+00
! ... 15251 like lines cut
/wb,elem,start            !  set before creation of elements
/com,*********** Elements for Body 1 "Surface Body" ***********
et,1,183
keyo,1,3,3
eblock,19,solid,,4929
(19i9)
        1        1        1        1        0        0        0        0        8        0       41      142      138        7        7     5318     5381        7     5401
        1        1        1        1        0        0        0        0        8        0      335     4726     4923     4983     4983     5212    14875     4983    14874
        1        1        1        1        0        0        0        0        8        0      336       45       44        9        9     5253     5225        9     5226
        1        1        1        1        0        0        0        0        8        0      337       27       10       28       28     5228     5229       28     5235
        1        1        1        1        0        0        0        0        8        0      458      446      491      568      568     6715     6098      568     6441
        1        1        1        1        0        0        0        0        8        0      460      518      492      378      378     6100     6104      378     6231
        1        1        1        1        0        0        0        0        8        0      754     5074     4749     4984     4984    15057     5975     4984    15058
        1        1        1        1        0        0        0        0        8        0      755     4984     4749     4748     4748     5975    14419     4748     5976
        1        1        1        1        0        0        0        0        8        0     4905     4638     4629     1302     1302    14266    14237     1302    14265
        1        1        1        1        0        0        0        0        8        0     4906     4588     4589     4468     4468    14123    14122     4468    14118
        1        1        1        1        0        0        0        0        8        0     4907     4545     4598     1098     1098    14153    14151     1098    13995
        1        1        1        1        0        0        0        0        8        0     4908     4549     4546     1236     1236    14007    13998     1236    14005
        1        1        1        1        0        0        0        0        8        0     4909     4508     4584     4538     4538    14108    14109     4538    13979
        1        1        1        1        0        0        0        0        8        0     4910     4585     4513     1577     1577    14113    13910     1577    14112
        1        1        1        1        0        0        0        0        8        0     4911     4464     1074     4429     4429    13785    13693     4429    13788
        1        1        1        1        0        0        0        0        8        0     4912     4415     1534     4411     4411    13652    13642     4411    13656
        1        1        1        1        0        0        0        0        8        0     4913     4284     4288     4150     4150    13337    13335     4150    13324
        1        1        1        1        0        0        0        0        8        0     4914     1008     3908      853      853    12329    12328      853     6851
        1        1        1        1        0        0        0        0        8        0     4915     4128     4127     1487     1487    12926    12921     1487    12924
        1        1        1        1        0        0        0        0        8        0     4916     4286     4284     1394     1394    13331    13322     1394    13328
! ... 4910 like lines cut
!Material Id = {002AEA25-4881-4F67-8194-72CAAE971E8A}
/wb,elem,end               !  done creating elements
/com,*********** Send User Defined Coordinate System(s) ***********
csys,0
toffst,273.15,  ! Temperature offset from absolute zero
/com,*********** Set Reference Temperature ***********
tref,22.
/wb,mat,start              !  starting to send materials
/com,*********** Send Materials ***********
MP,EX,1,205000,	! tonne s^-2 mm^-1
MP,NUXY,1,0.28,

/wb,mat,end                !  done sending materials
/com,*********** Send Sheet Properties ***********
r,1,1.

!************************* Model Summary ********************
!Surface Body,	S45C,	matid,	1
!************************* End Model Summary ********************
! get the diagonal of the bounding box. Needed later for other things
*get,_xmin,node,,mnloc,x
*get,_ymin,node,,mnloc,y
*get,_zmin,node,,mnloc,z
*get,_xmax,node,,mxloc,x
*get,_ymax,node,,mxloc,y
*get,_zmax,node,,mxloc,z
_ASMDIAG=(_xmax-_xmin)*(_xmax-_xmin)+(_ymax-_ymin)*(_ymax-_ymin)+(_zmax-_zmin)*(_zmax-_zmin)
_ASMDIAG=SQRT(_ASMDIAG)
/wb,contact,start          !  starting to send contact
/wb,contact,end            !  done creating contacts
/com,*********** Send Named Selection as Node Component ***********
CMBLOCK,ROI     ,NODE,    15111
(8i10)
         1         2         3         4         5         6         7         8
         9        10        11        12        13        14        15        16
        17        18        19        20        21        22        23        24
        25        26        27        28        29        30        31        32
        33        34        35        36        37        38        39        40
        41        42        43        44        45        46        47        48
        49        50        51        52        53        54        55        56
        57        58        59        60        61        62        63        64
        65        66        67        68        69        70        71        72
        73        74        75        76        77        78        79        80
        81        82        83        84        85        86        87        88
        89        90        91        92        93        94        95        96
        97        98        99       100       101       102       103       104
       105       106       107       108       109       110       111       112
       113       114       115       116       117       118       119       120
       121       122       123       124       125       126       127       128
       129       130       131       132       133       134       135       136
       137       138       139       140       141       142       143       144
       145       146       147       148       149       150       151       152
       153       154       155       156       157       158       159       160
! ... 1869 like lines cut
/com,*********** Send Named Selection as Node Component ***********
CMBLOCK,LEFT_CIRCLE,NODE,     1356
(8i10)
       356       357       358       359       360       361       362       363
       364       365       366       367       368       369       370       371
       372       373       374       375       376       377       378       379
       380       381       382       383       384       385       386       387
       388       389       390       391       392       393       394       395
       396       397       398       399       400       401       402       403
       404       405       406       407       408       409       410       411
       412       413       414       415       416       417       418       419
       420       421       422       423       424       425       426       427
       428       429       430       431       432       433       434       435
       436       437       438       439       440       441       442       443
       444       445       446       447       448       449       450       451
       452       453       454       455       456       457       458       459
       460       461       462       463       464       465       466       467
       468       469       470       471       472       473       474       475
       476       477       478       479       480       481       482       483
       484       485       486       487       488       489       490       491
       492       493       494       495       496       497       498       499
       500       501       502       503       504       505       506       507
       508       509       510       511       512       513       514       515
! ... 150 like lines cut
/com,*********** Send Named Selection as Node Component ***********
CMBLOCK,RIGHT_CIRCLE,NODE,     1315
(8i10)
         1         2         3         4         5         6         7         8
         9        10        11        12        13        14        15        16
        17        18        19        20        21        22        23        24
        25        26        27        28        29        30        31        32
        33        34        35        36        37        38        39        40
        41        42        43        44        45        46        47        48
        49        50        51        52        53        54        55        56
        57        58        59        60        61        62        63        64
        65        66        67        68        69        70        71        72
        73        74        75        76        77        78        79        80
        81        82        83        84        85        86        87        88
        89        90        91        92        93        94        95        96
        97        98        99       100       101       102       103       104
       105       106       107       108       109       110       111       112
       113       114       115       116       117       118       119       120
       121       122       123       124       125       126       127       128
       129       130       131       132       133       134       135       136
       137       138       139       140       141       142       143       144
       145       146       147       148       149       150       151       152
       153       154       155       156       157       158       159       160
! ... 145 like lines cut
/golist
/wb,load,start             !  starting to send loads
/com,*********** Fixed Supports ***********
CMBLOCK,_FIXEDSU,NODE,       93
(8i10)
       783       784       786       801       803      4728      4729      4730
      4885      4886      4887      4888      4889      4890      4891      4892
      4893      4894      4895      4896      4897      4898      4899      4900
      4901      4902      4903      4904      4905      4906      4907      4908
      4909      4910      4911      4912      4913      4914      4915      4916
      4917      4918      4919      4920      4921      4922      4949      6771
      6773      6775      6776      6779      6780      6848     14681     14683
     14685     14687     14689     14691     14693     14695     14697     14699
     14701     14703     14705     14707     14709     14711     14713     14715
     14717     14719     14721     14723     14725     14727     14729     14731
     14733     14735     14737     14739     14741     14743     14745     14747
     14749     14751     14753     14805     14806
cmsel,s,_FIXEDSU
d,all,all
nsel,all
/com,*********** Define Vertex Force Using Follower Elements ***********
et,2,201
keyo,2,1,1           ! Keep the direction constant
keyo,2,2,1           ! Apply Forces only, not moment
mat,2
real,2
type,2
en,4930,4704
r,2
rmod,2,1,1.0,              ! FX
mat,3
real,3
type,2
en,4931,4704
r,3
rmod,3,2,1.0,              ! FY
/gst,on,on
fini
*get,_numnode,node,0,count
*get,_numelem,elem,0,count
*get, _MAXELEMNUM, elem, 0, NUM, MAX
*get, _MAXNODENUM, node, 0, NUM, MAX
*get, _MAXELEMTYPE, etyp, 0, NUM, MAX
*get, _MAXREALCONST, real, 0, NUM, MAX
/go
/wb,load,end               !  done creating loads
/com,--- Number of total nodes = %_numnode%
/com,--- Number of contact elements = 0
/com,--- Number of spring elements = 0
/com,--- Number of bearing elements = 0
/com,--- Number of solid elements = 4929
/com,--- Number of condensed parts = 0
/com,--- Number of total elements = %_numelem%
*get,_wallbsol,active,,time,wall
/com,****************************************************************************
/com,*************************    SOLUTION       ********************************
/com,****************************************************************************
/solu
antype,0                   ! static analysis
_thickRatio=  0     ! Ratio of thick parts in the model
eqsl,sparse,,,,,1
cntr,print,1               ! print out contact info and also make no initial contact an error
dmpoption,emat,no             ! Don't combine emat file for DANSYS
dmpoption,esav,no             ! Don't combine esav file for DANSYS
nldiag,cont,iter           ! print out contact info each equilibrium iteration
rescontrol,,none                 ! Do not keep any restart files
/com,****************************************************
/com,******************* SOLVE FOR LS 1 OF 1 ****************
esel,s,real,,2
sfe,all,1,pres,1,-259.8
esel,s,real,,3
sfe,all,1,pres,1,150.
esel,all
/nopr
/gopr
nsub,1,1,1
time,1.
outres,erase
outres,all,none
outres,nsol,all,
outres,rsol,all
outres,eangl,all
outres,etmp,all
outres,veng,all
outres,strs,all,
outres,epel,all,
outres,eppl,all,
outres,cont,all,
! *********** WB SOLVE COMMAND ***********
! check interactive state
*get,ANSINTER_,active,,int
*if,ANSINTER_,ne,0,then
/eof
*endif
solve
/com *************** Write FE CONNECTORS ********* 
CEWRITE,file,ce,,INTE
/com,****************************************************
/com,*************** FINISHED SOLVE FOR LS 1 *************
*get,_wallasol,active,,time,wall
/nopr
*get,_numnode,node,0,count
*get,_numelem,elem,0,count
*get, _MAXELEMNUM, elem, 0, NUM, MAX
*get, _MAXNODENUM, node, 0, NUM, MAX,,,INTERNAL
*get, _MAXELEMTYPE, etyp, 0, NUM, MAX
*get, _MAXREALCONST, real, 0, NUM, MAX
/gopr
/post1
xmlo,ENCODING,ISO-8859-1
xmlo,parm
/xml,parm,xml
fini
/gopr
*get,_walldone,active,,time,wall
_preptime=(_wallbsol-_wallstrt)*3600
_solvtime=(_wallasol-_wallbsol)*3600
_posttime=(_walldone-_wallasol)*3600
_totaltim=(_walldone-_wallstrt)*3600
*get,_dlbratio,active,0,solu,dlbr
*get,_combtime,active,0,solu,comb
/com,--- Total number of nodes = %_numnode%
/com,--- Total number of elements = %_numelem%
/com,--- Element load balance ratio = %_dlbratio%
/com,--- Time to combine distributed files = %_combtime%
/wb,file,end               ! done with WB generated input
