/batch
/config,noeldb,1     ! force off writing results to database
*get,_wallstrt,active,,time,wall
! ANSYS input file written by Workbench version 2020 R2
! File used for geometry attach: C:\Users\shohei\Downloads\fem-izumi\5-3-7\pressure vessel_files\dp0\SYS\DM\SYS.agdb
/title,pressure vessel--Static Structural (A5)
*DIM,_wb_ProjectScratch_dir,string,248
_wb_ProjectScratch_dir(1) = 'C:\Users\shohei\Downloads\fem-izumi\5-3-7\_ProjectScratch\ScrAB0C\'
*DIM,_wb_SolverFiles_dir,string,248
_wb_SolverFiles_dir(1) = 'C:\Users\shohei\Downloads\fem-izumi\5-3-7\pressure vessel_files\dp0\SYS\MECH\'
*DIM,_wb_userfiles_dir,string,248
_wb_userfiles_dir(1) = 'C:\Users\shohei\Downloads\fem-izumi\5-3-7\pressure vessel_files\user_files\'
/com,--- Data in consistent NMM units. See Solving Units in the help system for more information.
/units,MPA
/nopr
/wb,file,start              !  signify a WB generated input file
/prep7
! Turn off shape checking because checks already performed inside WB mesher.
! See help system for more information.
SHPP,OFF,,NOWARN
/nolist
etcon,set             ! allow ANSYS to choose best KEYOP's for 180x elements
/com,*********** Nodes for the whole assembly ***********
nblock,3,,2318
(1i9,3e20.9e3)
        1     1.200000000E+02     1.000000000E+02     0.000000000E+00
        2     0.000000000E+00     2.200000000E+02     0.000000000E+00
        3     0.000000000E+00     2.000000000E+02     0.000000000E+00
        4     1.000000000E+02     1.000000000E+02     0.000000000E+00
        5     1.000000000E+02    -0.000000000E+00     0.000000000E+00
        6     1.200000000E+02     0.000000000E+00     0.000000000E+00
        7     1.028571429E+02     2.898951677E+00     0.000000000E+00
        8     1.028571430E+02     5.798140507E+00     0.000000000E+00
        9     1.028571432E+02     8.700077617E+00     0.000000000E+00
       10     1.028571435E+02     1.161244273E+01     0.000000000E+00
       11     1.028571438E+02     1.454318984E+01     0.000000000E+00
       12     1.028571443E+02     1.748588369E+01     0.000000000E+00
       13     1.028571448E+02     2.042581122E+01     0.000000000E+00
       14     1.028571454E+02     2.336182816E+01     0.000000000E+00
       15     1.028571461E+02     2.629397848E+01     0.000000000E+00
       16     1.028571469E+02     2.922230728E+01     0.000000000E+00
       17     1.028571477E+02     3.214686105E+01     0.000000000E+00
       18     1.028571486E+02     3.506768754E+01     0.000000000E+00
       19     1.028571496E+02     3.798483668E+01     0.000000000E+00
       20     1.028571507E+02     4.089836002E+01     0.000000000E+00
! ... 2089 like lines cut
/wb,elem,start            !  set before creation of elements
/com,*********** Elements for Body 1 "Surface Body" ***********
et,1,183
keyo,1,3,1
eblock,19,solid,,637
(19i9)
        1        1        1        1        0        0        0        0        8        0        1      577        7      583        5      753      754      748      747
        1        1        1        1        0        0        0        0        8        0        2      578       97        7      577     1023      752      753     1954
        1        1        1        1        0        0        0        0        8        0        3      579      187       97      578     1204     1022     1023     1955
        1        1        1        1        0        0        0        0        8        0        4      580      277      187      579     1385     1203     1204     1956
        1        1        1        1        0        0        0        0        8        0        5      581      367      277      580     1566     1384     1385     1957
        1        1        1        1        0        0        0        0        8        0        6      582      457      367      581     1747     1565     1566     1958
        1        1        1        1        0        0        0        0        8        0        7        6      547      457      582      749     1746     1747      750
        1        1        1        1        0        0        0        0        8        0        8        7        8      584      583      751      757     1959      754
        1        1        1        1        0        0        0        0        8        0        9       97       98        8        7     1021      756      751      752
        1        1        1        1        0        0        0        0        8        0       10      187      188       98       97     1202     1025     1021     1022
        1        1        1        1        0        0        0        0        8        0       11      277      278      188      187     1383     1206     1202     1203
        1        1        1        1        0        0        0        0        8        0       12      367      368      278      277     1564     1387     1383     1384
        1        1        1        1        0        0        0        0        8        0       13      457      458      368      367     1745     1568     1564     1565
        1        1        1        1        0        0        0        0        8        0       14      547      548      458      457     1925     1749     1745     1746
        1        1        1        1        0        0        0        0        8        0       15        8        9      585      584      755      760     1960      757
        1        1        1        1        0        0        0        0        8        0       16       98       99        9        8     1024      759      755      756
        1        1        1        1        0        0        0        0        8        0       17      188      189       99       98     1205     1027     1024     1025
        1        1        1        1        0        0        0        0        8        0       18      278      279      189      188     1386     1208     1205     1206
        1        1        1        1        0        0        0        0        8        0       19      368      369      279      278     1567     1389     1386     1387
        1        1        1        1        0        0        0        0        8        0       20      458      459      369      368     1748     1570     1567     1568
! ... 618 like lines cut
!Material Id = {AF0AD466-04CC-47BC-A780-1A0576B5DBF1}
/wb,elem,end               !  done creating elements
/com,*********** Send User Defined Coordinate System(s) ***********
local,12,1,0.,0.,0.,0.,0.,0.
csys,0
toffst,273.15,  ! Temperature offset from absolute zero
/com,*********** Set Reference Temperature ***********
tref,22.
/wb,mat,start              !  starting to send materials
/com,*********** Send Materials ***********
MP,EX,1,205000,	! tonne s^-2 mm^-1
MP,NUXY,1,0.3,

/wb,mat,end                !  done sending materials
/com,*********** Send Sheet Properties ***********
!************************* Model Summary ********************
!Surface Body,	SB450,	matid,	1
!************************* End Model Summary ********************
! get the diagonal of the bounding box. Needed later for other things
*get,_xmin,node,,mnloc,x
*get,_ymin,node,,mnloc,y
*get,_zmin,node,,mnloc,z
*get,_xmax,node,,mxloc,x
*get,_ymax,node,,mxloc,y
*get,_zmax,node,,mxloc,z
_ASMDIAG=(_xmax-_xmin)*(_xmax-_xmin)+(_ymax-_ymin)*(_ymax-_ymin)+(_zmax-_zmin)*(_zmax-_zmin)
_ASMDIAG=SQRT(_ASMDIAG)
/wb,contact,start          !  starting to send contact
/wb,contact,end            !  done creating contacts
/golist
/wb,load,start             !  starting to send loads
/com,********* Frictionless Supports Y *********
CMBLOCK,_FRICSUY,NODE,       15
(8i10)
         5         6       577       578       579       580       581       582
       747       750      1954      1955      1956      1957      1958
cmsel,s,_FRICSUY
d,all,uy,0
nsel,all
/com,******* Constant Zero Displacement X *******
CMBLOCK,_DISPZEROUX,NODE,       15
(8i10)
         2         3       672       673       674       675       676       677
       740       743      2046      2047      2048      2049      2050
cmsel,s,_DISPZEROUX
d,all,ux,0
nsel,all
/com,********** Rotational Supports Z **********
CMBLOCK,_ROTSUZ ,NODE,       15
(8i10)
         5         6       577       578       579       580       581       582
       747       750      1954      1955      1956      1957      1958
cmsel,s,_ROTSUZ
d,all,rotz,0
nsel,all
/com,*********** Define Pressure Using Surface Effect Elements ***********
et,2,153
keyop,2,3,10        ! get plane stress option and thickness from underlying element
eblock,10,,,91
(15i9)
      638        2        2        2        0        4      617      746
      639        2        2        2        0      617      618     1992
      640        2        2        2        0      618      619     1993
      641        2        2        2        0      619      620     1994
      642        2        2        2        0      620      621     1995
      643        2        2        2        0      621      622     1996
      644        2        2        2        0      622      623     1997
      645        2        2        2        0      623      624     1998
      646        2        2        2        0      624      625     1999
      647        2        2        2        0      625      626     2000
      648        2        2        2        0      626      627     2001
      649        2        2        2        0      627      628     2002
      650        2        2        2        0      628      629     2003
      651        2        2        2        0      629      630     2004
      652        2        2        2        0      630      631     2005
      653        2        2        2        0      631      632     2006
      654        2        2        2        0      632      633     2007
      655        2        2        2        0      633      634     2008
      656        2        2        2        0      634      635     2009
      657        2        2        2        0      635      636     2010
! ... 72 like lines cut
esel,s,type,,2
keyop,2,7,0                ! Use deformed area for application of load
esel,all
esel,all
/gst,on,on
fini
*get,_numnode,node,0,count
*get,_numelem,elem,0,count
*get, _MAXELEMNUM, elem, 0, NUM, MAX
*get, _MAXNODENUM, node, 0, NUM, MAX
*get, _MAXELEMTYPE, etyp, 0, NUM, MAX
*get, _MAXREALCONST, real, 0, NUM, MAX
/go
/wb,load,end               !  done creating loads
/com,--- Number of total nodes = %_numnode%
/com,--- Number of contact elements = 91
/com,--- Number of spring elements = 0
/com,--- Number of bearing elements = 0
/com,--- Number of solid elements = 637
/com,--- Number of condensed parts = 0
/com,--- Number of total elements = %_numelem%
*get,_wallbsol,active,,time,wall
/com,****************************************************************************
/com,*************************    SOLUTION       ********************************
/com,****************************************************************************
/solu
antype,0                   ! static analysis
_thickRatio=  0     ! Ratio of thick parts in the model
eqsl,sparse,,,,,1
cntr,print,1               ! print out contact info and also make no initial contact an error
dmpoption,emat,no             ! Don't combine emat file for DANSYS
dmpoption,esav,no             ! Don't combine esav file for DANSYS
nldiag,cont,iter           ! print out contact info each equilibrium iteration
rescontrol,,none                 ! Do not keep any restart files
/com,****************************************************
/com,******************* SOLVE FOR LS 1 OF 1 ****************
esel,s,type,,2
nsle
sf,all,pres,10.
nsel,all
esel,all
esel,all
/nopr
/gopr
nsub,1,1,1
time,1.
outres,erase
outres,all,none
outres,nsol,all,
outres,rsol,all
outres,eangl,all
outres,etmp,all
outres,veng,all
outres,strs,all,
outres,epel,all,
outres,eppl,all,
outres,cont,all,
! *********** WB SOLVE COMMAND ***********
! check interactive state
*get,ANSINTER_,active,,int
*if,ANSINTER_,ne,0,then
/eof
*endif
solve
/com *************** Write FE CONNECTORS ********* 
CEWRITE,file,ce,,INTE
/com,****************************************************
/com,*************** FINISHED SOLVE FOR LS 1 *************
*get,_wallasol,active,,time,wall
/nopr
*get,_numnode,node,0,count
*get,_numelem,elem,0,count
*get, _MAXELEMNUM, elem, 0, NUM, MAX
*get, _MAXNODENUM, node, 0, NUM, MAX,,,INTERNAL
*get, _MAXELEMTYPE, etyp, 0, NUM, MAX
*get, _MAXREALCONST, real, 0, NUM, MAX
/gopr
/post1
xmlo,ENCODING,ISO-8859-1
xmlo,parm
/xml,parm,xml
fini
/gopr
*get,_walldone,active,,time,wall
_preptime=(_wallbsol-_wallstrt)*3600
_solvtime=(_wallasol-_wallbsol)*3600
_posttime=(_walldone-_wallasol)*3600
_totaltim=(_walldone-_wallstrt)*3600
*get,_dlbratio,active,0,solu,dlbr
*get,_combtime,active,0,solu,comb
/com,--- Total number of nodes = %_numnode%
/com,--- Total number of elements = %_numelem%
/com,--- Element load balance ratio = %_dlbratio%
/com,--- Time to combine distributed files = %_combtime%
/wb,file,end               ! done with WB generated input
