/batch
/config,noeldb,1     ! force off writing results to database
*get,_wallstrt,active,,time,wall
! ANSYS input file written by Workbench version 2020 R2
! File used for geometry attach: C:\Users\shohei\Downloads\fem-izumi\5-1\hole_plate_files\dp0\SYS\DM\SYS.agdb
/title,hole_plate--Static Structural (A5)
*DIM,_wb_ProjectScratch_dir,string,248
_wb_ProjectScratch_dir(1) = 'C:\Users\shohei\Downloads\fem-izumi\5-1\_ProjectScratch\Scr906D\'
*DIM,_wb_SolverFiles_dir,string,248
_wb_SolverFiles_dir(1) = 'C:\Users\shohei\Downloads\fem-izumi\5-1\hole_plate_files\dp0\SYS\MECH\'
*DIM,_wb_userfiles_dir,string,248
_wb_userfiles_dir(1) = 'C:\Users\shohei\Downloads\fem-izumi\5-1\hole_plate_files\user_files\'
/com,--- Data in consistent NMM units. See Solving Units in the help system for more information.
/units,MPA
/nopr
/wb,file,start              !  signify a WB generated input file
/prep7
! Turn off shape checking because checks already performed inside WB mesher.
! See help system for more information.
SHPP,OFF,,NOWARN
/nolist
etcon,set             ! allow ANSYS to choose best KEYOP's for 180x elements
/com,*********** Nodes for the whole assembly ***********
nblock,3,,5067
(1i9,3e20.9e3)
        1     6.070465236E+00     2.867246313E+01     0.000000000E+00
        2     7.111898950E+00     4.258404459E+01     0.000000000E+00
        3     1.479384629E+01     2.813805111E+01     0.000000000E+00
        4     9.231223209E+00     4.120438979E+01     0.000000000E+00
        5     1.089980997E+01     3.975975890E+01     0.000000000E+00
        6     1.431465596E+01     3.381424164E+01     0.000000000E+00
        7     1.132345133E+01     3.734256546E+01     0.000000000E+00
        8     1.241237084E+01     3.532284894E+01     0.000000000E+00
        9     1.210962221E+01     3.252505441E+01     0.000000000E+00
       10     1.087772466E+01     3.825525025E+01     0.000000000E+00
       11     1.491686950E+01     3.194075124E+01     0.000000000E+00
       12     1.664355759E+01     3.174390874E+01     0.000000000E+00
       13     1.147955731E+01     3.644140901E+01     0.000000000E+00
       14     1.144761626E+01     3.120808924E+01     0.000000000E+00
       15     1.200575852E+01     3.914616556E+01     0.000000000E+00
       16     1.033386200E+01     3.929078147E+01     0.000000000E+00
       17     1.146353014E+01     3.450880994E+01     0.000000000E+00
       18     1.157800158E+01     3.545382229E+01     0.000000000E+00
       19     1.109305268E+01     3.288300418E+01     0.000000000E+00
       20     1.064076167E+01     3.217682416E+01     0.000000000E+00
! ... 4588 like lines cut
/wb,elem,start            !  set before creation of elements
/com,*********** Elements for Body 1 "Surface Body" ***********
et,1,183
keyo,1,3,3
eblock,19,solid,,1454
(19i9)
        1        1        1        1        0        0        0        0        8        0     1028       56      311       57       57     1814     1816       57     1812
        1        1        1        1        0        0        0        0        8        0     1029      318       45      314      314     1782     1781      314     2192
        1        1        1        1        0        0        0        0        8        0     1030      317       55      312      312     1811     1810      312     2190
        1        1        1        1        0        0        0        0        8        0     1031       42       22       39       39     1716     1715       39     1765
        1        1        1        1        0        0        0        0        8        0     1032      338      326        6        6     2200     1666        6     1667
        1        1        1        1        0        0        0        0        8        0        1        4       88       33      327     1578     1749     1750     1658
        1        1        1        1        0        0        0        0        8        0        2       88        4      312       21     1578     1656     1713     1711
        1        1        1        1        0        0        0        0        8        0        3      398      131       63       96     1583     1835     1833     1920
        1        1        1        1        0        0        0        0        8        0        4       96      108      577      398     1918     1579     2209     1920
        1        1        1        1        0        0        0        0        8        0        5      397      577      108      130     2210     1579     1947     2208
        1        1        1        1        0        0        0        0        8        0        6      145      146       85      144     2017     1892     1895     2016
        1        1        1        1        0        0        0        0        8        0        7       85      342       34       86     1893     1754     1752     1894
        1        1        1        1        0        0        0        0        8        0        8      144       85       86      143     1895     1894     1897     2015
        1        1        1        1        0        0        0        0        8        0        9      156      157      158       65     2028     2029     1842     1873
        1        1        1        1        0        0        0        0        8        0       10       65      304       41       76     1843     1770     1769     1872
        1        1        1        1        0        0        0        0        8        0       11      156       65       76      155     1873     1872     1875     2027
        1        1        1        1        0        0        0        0        8        0       12      652      430      651     1255     1580     2744     2749     2746
        1        1        1        1        0        0        0        0        8        0       13      652     1256      543      430     2743     2740     2314     1580
        1        1        1        1        0        0        0        0        8        0       14      656      432      655     1251     1581     2765     2770     2767
        1        1        1        1        0        0        0        0        8        0       15      656     1252      541      432     2764     2761     2321     1581
! ... 1435 like lines cut
!Material Id = {AC67A3C6-7BB0-4E92-A45B-81759AD75B9A}
/wb,elem,end               !  done creating elements
/com,*********** Send User Defined Coordinate System(s) ***********
csys,0
toffst,273.15,  ! Temperature offset from absolute zero
/com,*********** Set Reference Temperature ***********
tref,22.
/wb,mat,start              !  starting to send materials
/com,*********** Send Materials ***********
MP,EX,1,205000,	! tonne s^-2 mm^-1
MP,NUXY,1,0.28,

/wb,mat,end                !  done sending materials
/com,*********** Send Sheet Properties ***********
r,1,1.

!************************* Model Summary ********************
!Surface Body,	S45C,	matid,	1
!************************* End Model Summary ********************
! get the diagonal of the bounding box. Needed later for other things
*get,_xmin,node,,mnloc,x
*get,_ymin,node,,mnloc,y
*get,_zmin,node,,mnloc,z
*get,_xmax,node,,mxloc,x
*get,_ymax,node,,mxloc,y
*get,_zmax,node,,mxloc,z
_ASMDIAG=(_xmax-_xmin)*(_xmax-_xmin)+(_ymax-_ymin)*(_ymax-_ymin)+(_zmax-_zmin)*(_zmax-_zmin)
_ASMDIAG=SQRT(_ASMDIAG)
/wb,contact,start          !  starting to send contact
/wb,contact,end            !  done creating contacts
/golist
/wb,load,start             !  starting to send loads
/com,*********** Fixed Supports ***********
CMBLOCK,_FIXEDSU,NODE,        1
(8i10)
      1576
cmsel,s,_FIXEDSU
d,all,all
nsel,all
/com,******* Constant Zero Displacement X *******
CMBLOCK,_DISPZEROUX,NODE,       63
(8i10)
      1329      1332      1424      1425      1427      1428      1474      1476
      1477      1479      1526      1527      1528      1529      1530      1531
      1532      1533      1547      1564      1565      1566      1567      1568
      1569      1570      1571      1572      1573      1574      1575      1577
      4360      4362      4365      4366      4547      4549      4551      4552
      4555      4556      4557      4558      4559      4560      4561      4562
      4563      4564      4565      4578      4596      4597      4598      4599
      4600      4601      4602      4603      4604      4605      4607
cmsel,s,_DISPZEROUX
d,all,ux,0
nsel,all
/com,*********** Define Pressure Using Surface Effect Elements ***********
et,2,153
keyop,2,3,10        ! get plane stress option and thickness from underlying element
eblock,10,,,7
(15i9)
     1455        2        2        2        0     1554     1548     4586
     1456        2        2        2        0     1548     1549     4580
     1457        2        2        2        0     1549     1550     4581
     1458        2        2        2        0     1550     1551     4582
     1459        2        2        2        0     1551     1552     4583
     1460        2        2        2        0     1552     1553     4584
     1461        2        2        2        0     1553     1563     4594
-1
esel,s,type,,2
keyop,2,7,0                ! Use deformed area for application of load
esel,all
esel,all
/gst,on,on
fini
*get,_numnode,node,0,count
*get,_numelem,elem,0,count
*get, _MAXELEMNUM, elem, 0, NUM, MAX
*get, _MAXNODENUM, node, 0, NUM, MAX
*get, _MAXELEMTYPE, etyp, 0, NUM, MAX
*get, _MAXREALCONST, real, 0, NUM, MAX
/go
/wb,load,end               !  done creating loads
/com,--- Number of total nodes = %_numnode%
/com,--- Number of contact elements = 7
/com,--- Number of spring elements = 0
/com,--- Number of bearing elements = 0
/com,--- Number of solid elements = 1454
/com,--- Number of condensed parts = 0
/com,--- Number of total elements = %_numelem%
*get,_wallbsol,active,,time,wall
/com,****************************************************************************
/com,*************************    SOLUTION       ********************************
/com,****************************************************************************
/solu
antype,0                   ! static analysis
_thickRatio=  0     ! Ratio of thick parts in the model
eqsl,sparse,,,,,1
cntr,print,1               ! print out contact info and also make no initial contact an error
dmpoption,emat,no             ! Don't combine emat file for DANSYS
dmpoption,esav,no             ! Don't combine esav file for DANSYS
nldiag,cont,iter           ! print out contact info each equilibrium iteration
rescontrol,,none                 ! Do not keep any restart files
/com,****************************************************
/com,******************* SOLVE FOR LS 1 OF 1 ****************
esel,s,type,,2
nsle
sf,all,pres,100.
nsel,all
esel,all
esel,all
/nopr
/gopr
nsub,1,1,1
time,1.
outres,erase
outres,all,none
outres,nsol,all,
outres,rsol,all
outres,eangl,all
outres,etmp,all
outres,veng,all
outres,strs,all,
outres,epel,all,
outres,eppl,all,
outres,cont,all,
! *********** WB SOLVE COMMAND ***********
! check interactive state
*get,ANSINTER_,active,,int
*if,ANSINTER_,ne,0,then
/eof
*endif
solve
/com *************** Write FE CONNECTORS ********* 
CEWRITE,file,ce,,INTE
/com,****************************************************
/com,*************** FINISHED SOLVE FOR LS 1 *************
*get,_wallasol,active,,time,wall
/nopr
*get,_numnode,node,0,count
*get,_numelem,elem,0,count
*get, _MAXELEMNUM, elem, 0, NUM, MAX
*get, _MAXNODENUM, node, 0, NUM, MAX,,,INTERNAL
*get, _MAXELEMTYPE, etyp, 0, NUM, MAX
*get, _MAXREALCONST, real, 0, NUM, MAX
/gopr
/post1
xmlo,ENCODING,ISO-8859-1
xmlo,parm
/xml,parm,xml
fini
/gopr
*get,_walldone,active,,time,wall
_preptime=(_wallbsol-_wallstrt)*3600
_solvtime=(_wallasol-_wallbsol)*3600
_posttime=(_walldone-_wallasol)*3600
_totaltim=(_walldone-_wallstrt)*3600
*get,_dlbratio,active,0,solu,dlbr
*get,_combtime,active,0,solu,comb
/com,--- Total number of nodes = %_numnode%
/com,--- Total number of elements = %_numelem%
/com,--- Element load balance ratio = %_dlbratio%
/com,--- Time to combine distributed files = %_combtime%
/wb,file,end               ! done with WB generated input
