/batch
/config,noeldb,1     ! force off writing results to database
*get,_wallstrt,active,,time,wall
! ANSYS input file written by Workbench version 2020 R2
! File used for geometry attach: C:\Users\shohei\Downloads\fem-izumi\5-5\beam1_files\dp0\SYS-2\DM\SYS-2.agdb
/title,beam1--Static Structural (D5)
*DIM,_wb_ProjectScratch_dir,string,248
_wb_ProjectScratch_dir(1) = 'C:\Users\shohei\Downloads\fem-izumi\5-5\_ProjectScratch\Scr4DA0\'
*DIM,_wb_SolverFiles_dir,string,248
_wb_SolverFiles_dir(1) = 'C:\Users\shohei\Downloads\fem-izumi\5-5\beam1_files\dp0\SYS-3\MECH\'
*DIM,_wb_userfiles_dir,string,248
_wb_userfiles_dir(1) = 'C:\Users\shohei\Downloads\fem-izumi\5-5\beam1_files\user_files\'
/com,--- Data in consistent NMM units. See Solving Units in the help system for more information.
/units,MPA
/nopr
/wb,file,start              !  signify a WB generated input file
/prep7
! Turn off shape checking because checks already performed inside WB mesher.
! See help system for more information.
SHPP,OFF,,NOWARN
/nolist
etcon,set             ! allow ANSYS to choose best KEYOP's for 180x elements
/com,*********** Nodes for the whole assembly ***********
nblock,3,,6757
(1i9,3e20.9e3)
        1     9.500000000E+00     1.425000000E+01     5.000000000E+00
        2     9.500000000E+00     1.425000000E+01     1.000000000E+01
        3     9.500000000E+00     1.425000000E+01     1.500000000E+01
        4     9.500000000E+00     1.425000000E+01     2.000000000E+01
        5     9.500000000E+00     1.425000000E+01     2.500000000E+01
        6     9.500000000E+00     1.425000000E+01     3.000000000E+01
        7     9.500000000E+00     1.425000000E+01     3.500000000E+01
        8     9.500000000E+00     1.425000000E+01     4.000000000E+01
        9     9.500000000E+00     1.425000000E+01     4.500000000E+01
       10     9.500000000E+00     1.425000000E+01     5.000000000E+01
       11     9.500000000E+00     1.425000000E+01     5.500000000E+01
       12     9.500000000E+00     1.425000000E+01     6.000000000E+01
       13     9.500000000E+00     1.425000000E+01     6.500000000E+01
       14     9.500000000E+00     1.425000000E+01     7.000000000E+01
       15     9.500000000E+00     1.425000000E+01     7.500000000E+01
       16     9.500000000E+00     1.425000000E+01     8.000000000E+01
       17     9.500000000E+00     1.425000000E+01     8.500000000E+01
       18     9.500000000E+00     1.425000000E+01     9.000000000E+01
       19     9.500000000E+00     1.425000000E+01     9.500000000E+01
       20     9.500000000E+00     1.425000000E+01     1.000000000E+02
! ... 6124 like lines cut
/wb,elem,start            !  set before creation of elements
/com,*********** Elements for Body 1 "Solid" ***********
et,1,186
keyo,1,2,1          ! set full integration on SOLID186
eblock,19,solid,,800
(19i9)
        1        1        1        1        0        0        0        0       20        0        1      693     1654     1754     1805      694     1550     1551     1394
     4002     5981     6081     4003     4007     5824     5512     4006     4001     5825     5826     5513
        1        1        1        1        0        0        0        0       20        0        2      594      693     1805     1806      793      694     1394     1395
     3703     4003     6132     3705     4005     4006     5511     4304     3704     4001     5513     5515
        1        1        1        1        0        0        0        0       20        0        3      495      594     1806     1807      892      793     1395     1396
     3405     3705     6133     3407     4303     4304     5514     4503     3406     3704     5515     5517
        1        1        1        1        0        0        0        0       20        0        4      396      495     1807     1808      991      892     1396     1397
     3107     3407     6134     3109     4502     4503     5516     4702     3108     3406     5517     5519
        1        1        1        1        0        0        0        0       20        0        5      297      396     1808     1809     1090      991     1397     1398
     2809     3109     6135     2811     4701     4702     5518     4901     2810     3108     5519     5521
        1        1        1        1        0        0        0        0       20        0        6      198      297     1809     1810     1189     1090     1398     1399
     2511     2811     6136     2513     4900     4901     5520     5100     2512     2810     5521     5523
        1        1        1        1        0        0        0        0       20        0        7       99      198     1810     1811     1288     1189     1399     1400
     2212     2513     6137     2215     5099     5100     5522     5298     2213     2512     5523     5525
        1        1        1        1        0        0        0        0       20        0        8       99     1811     1804     1755     1288     1400     1450     1449
     2215     6131     6083     2214     5298     5524     5623     5299     2213     5525     5625     5624
        1        1        1        1        0        0        0        0       20        0        9      692     1655     1654      693      695     1549     1550      694
     4000     5980     4002     3998     4010     5822     4007     4004     3999     5823     5825     4001
        1        1        1        1        0        0        0        0       20        0       10      593      692      693      594      794      695      694      793
     3701     3998     3703     3700     4009     4004     4005     4302     3702     3999     4001     3704
! ... 1581 like lines cut
!Material Id = {E4C6F00B-3606-4EB5-9006-D785BF6FB826}
/wb,elem,end               !  done creating elements
/com,*********** Send User Defined Coordinate System(s) ***********
csys,0
toffst,273.15,  ! Temperature offset from absolute zero
/com,*********** Set Reference Temperature ***********
tref,22.
/wb,mat,start              !  starting to send materials
/com,*********** Send Materials ***********
MP,EX,1,205000,	! tonne s^-2 mm^-1
MP,NUXY,1,0.3,

/wb,mat,end                !  done sending materials
!************************* Model Summary ********************
!Solid,	S45C,	matid,	1
!************************* End Model Summary ********************
! get the diagonal of the bounding box. Needed later for other things
*get,_xmin,node,,mnloc,x
*get,_ymin,node,,mnloc,y
*get,_zmin,node,,mnloc,z
*get,_xmax,node,,mxloc,x
*get,_ymax,node,,mxloc,y
*get,_zmax,node,,mxloc,z
_ASMDIAG=(_xmax-_xmin)*(_xmax-_xmin)+(_ymax-_ymin)*(_ymax-_ymin)+(_zmax-_zmin)*(_zmax-_zmin)
_ASMDIAG=SQRT(_ASMDIAG)
/wb,contact,start          !  starting to send contact
/wb,contact,end            !  done creating contacts
/golist
/wb,load,start             !  starting to send loads
/com,*********** Fixed Supports ***********
CMBLOCK,_FIXEDSU,NODE,       86
(8i10)
      1387      1388      1389      1390      1391      1392      1393      1394
      1395      1396      1397      1398      1399      1400      1450      1451
      1551      1552      1652      1753      1754      1804      1805      1806
      1807      1808      1809      1810      1811      1812      1813      1814
      1815      1816      1817      1818      5496      5497      5498      5499
      5500      5501      5502      5503      5504      5505      5506      5507
      5508      5509      5510      5511      5512      5513      5514      5515
      5516      5517      5518      5519      5520      5521      5522      5523
      5524      5525      5625      5627      5826      5828      5978      6080
      6081      6131      6132      6133      6134      6135      6136      6137
      6138      6139      6140      6141      6142      6143
cmsel,s,_FIXEDSU
d,all,all
nsel,all
/com,*********** Define Force Using Surface Effect Elements ***********
local,12,0,0.,0.,0.,0.,0.,0.
csys,0
et,2,156
keyop,2,5,1         !  No orientation node
eblock,10,,,1
(15i9)
     2617        2        2        2       12     1653     1602     5927
-1
esel,s,type,,2
keyop,2,2,1                ! Apply load in local coordinate system
keyop,2,7,1                ! Use original area so load is constant in large deformation
esel,all
/gst,on,on
fini
*get,_numnode,node,0,count
*get,_numelem,elem,0,count
*get, _MAXELEMNUM, elem, 0, NUM, MAX
*get, _MAXNODENUM, node, 0, NUM, MAX
*get, _MAXELEMTYPE, etyp, 0, NUM, MAX
*get, _MAXREALCONST, real, 0, NUM, MAX
/go
/wb,load,end               !  done creating loads
/com,--- Number of total nodes = %_numnode%
/com,--- Number of contact elements = 1
/com,--- Number of spring elements = 0
/com,--- Number of bearing elements = 0
/com,--- Number of solid elements = 800
/com,--- Number of condensed parts = 0
/com,--- Number of total elements = %_numelem%
*get,_wallbsol,active,,time,wall
/com,****************************************************************************
/com,*************************    SOLUTION       ********************************
/com,****************************************************************************
/solu
antype,0                   ! static analysis
_thickRatio=  0     ! Ratio of thick parts in the model
eqsl,sparse,,,,,1
cntr,print,1               ! print out contact info and also make no initial contact an error
dmpoption,emat,no             ! Don't combine emat file for DANSYS
dmpoption,esav,no             ! Don't combine esav file for DANSYS
nldiag,cont,iter           ! print out contact info each equilibrium iteration
rescontrol,,none                 ! Do not keep any restart files
/com,****************************************************
/com,******************* SOLVE FOR LS 1 OF 1 ****************
esel,s,type,,2
nsle
sfe,all,1,pres,1,0.
sfe,all,2,pres,1,-526.315789473684
sfe,all,3,pres,1,0.
nsel,all
esel,all
/nopr
/gopr
nsub,1,1,1
time,1.
outres,erase
outres,all,none
outres,nsol,all,
outres,rsol,all
outres,eangl,all
outres,etmp,all
outres,veng,all
outres,strs,all,
outres,epel,all,
outres,eppl,all,
outres,cont,all,
! *********** WB SOLVE COMMAND ***********
! check interactive state
*get,ANSINTER_,active,,int
*if,ANSINTER_,ne,0,then
/eof
*endif
solve
/com *************** Write FE CONNECTORS ********* 
CEWRITE,file,ce,,INTE
/com,****************************************************
/com,*************** FINISHED SOLVE FOR LS 1 *************
*get,_wallasol,active,,time,wall
/nopr
*get,_numnode,node,0,count
*get,_numelem,elem,0,count
*get, _MAXELEMNUM, elem, 0, NUM, MAX
*get, _MAXNODENUM, node, 0, NUM, MAX,,,INTERNAL
*get, _MAXELEMTYPE, etyp, 0, NUM, MAX
*get, _MAXREALCONST, real, 0, NUM, MAX
/gopr
/post1
xmlo,ENCODING,ISO-8859-1
xmlo,parm
/xml,parm,xml
fini
/gopr
*get,_walldone,active,,time,wall
_preptime=(_wallbsol-_wallstrt)*3600
_solvtime=(_wallasol-_wallbsol)*3600
_posttime=(_walldone-_wallasol)*3600
_totaltim=(_walldone-_wallstrt)*3600
*get,_dlbratio,active,0,solu,dlbr
*get,_combtime,active,0,solu,comb
/com,--- Total number of nodes = %_numnode%
/com,--- Total number of elements = %_numelem%
/com,--- Element load balance ratio = %_dlbratio%
/com,--- Time to combine distributed files = %_combtime%
/wb,file,end               ! done with WB generated input
