/batch
/config,noeldb,1     ! force off writing results to database
*get,_wallstrt,active,,time,wall
! ANSYS input file written by Workbench version 2020 R2
! File used for geometry attach: C:\Users\shohei\Downloads\fem-izumi\5-3-10\paper cutter knife_files\dp0\SYS\DM\SYS.agdb
/title,paper cutter knife--Static Structural (A5)
*DIM,_wb_ProjectScratch_dir,string,248
_wb_ProjectScratch_dir(1) = 'C:\Users\shohei\Downloads\fem-izumi\5-3-10\_ProjectScratch\ScrDB25\'
*DIM,_wb_SolverFiles_dir,string,248
_wb_SolverFiles_dir(1) = 'C:\Users\shohei\Downloads\fem-izumi\5-3-10\paper cutter knife_files\dp0\SYS\MECH\'
*DIM,_wb_userfiles_dir,string,248
_wb_userfiles_dir(1) = 'C:\Users\shohei\Downloads\fem-izumi\5-3-10\paper cutter knife_files\user_files\'
/com,--- Data in consistent NMM units. See Solving Units in the help system for more information.
/units,MPA
/nopr
/wb,file,start              !  signify a WB generated input file
/prep7
! Turn off shape checking because checks already performed inside WB mesher.
! See help system for more information.
SHPP,OFF,,NOWARN
/nolist
etcon,set             ! allow ANSYS to choose best KEYOP's for 180x elements
/com,*********** Nodes for the whole assembly ***********
nblock,3,,7719
(1i9,3e20.9e3)
        1     1.158054768E+01     2.879390343E+00     0.000000000E+00
        2     1.175865966E+01     7.620929534E-01     0.000000000E+00
        3     1.601205734E+01     4.376703382E+00     0.000000000E+00
        4     1.878049527E+01     1.808498372E+00     0.000000000E+00
        5     1.861604929E+01     2.279127721E+01     0.000000000E+00
        6     1.943762407E+01     2.155088381E+01     0.000000000E+00
        7     1.325277306E+01     2.456732470E+01     0.000000000E+00
        8     1.696486830E+01     2.473282873E+01     0.000000000E+00
        9     2.971949874E+01     1.704935347E+01     0.000000000E+00
       10     2.517694262E+01     1.484748953E+01     0.000000000E+00
       11     1.177799231E+01     2.736351823E+01     0.000000000E+00
       12     2.025001187E+01     2.338784078E+01     0.000000000E+00
       13     1.360183687E+01     1.715438158E+01     0.000000000E+00
       14     1.403166862E+01     2.205670978E+01     0.000000000E+00
       15     1.394543976E+01     1.635506536E+01     0.000000000E+00
       16     1.391064564E+01     2.107004697E+01     0.000000000E+00
       17     1.404942285E+01     1.736408032E+01     0.000000000E+00
       18     1.411665997E+01     2.315010094E+01     0.000000000E+00
       19     1.270160751E+01     2.533825205E+01     0.000000000E+00
       20     1.344737258E+01     2.519177920E+01     0.000000000E+00
! ... 6999 like lines cut
/wb,elem,start            !  set before creation of elements
/com,*********** Elements for Body 1 "Surface Body" ***********
et,1,183
keyo,1,3,3
eblock,19,solid,,2287
(19i9)
        1        1        1        1        0        0        0        0        8        0       20     1424     1426     1067     1067     5184     5268     1067     5263
        1        1        1        1        0        0        0        0        8        0       21     1561     1428     1390     1390     5186     5271     1390     5185
        1        1        1        1        0        0        0        0        8        0      216      831     1071     1079     1079     4563     4993     1079     4564
        1        1        1        1        0        0        0        0        8        0      217      693     1093      602      602     4238     4020      602     4018
        1        1        1        1        0        0        0        0        8        0      218      497     1255      498      498     3755     3757      498     3752
        1        1        1        1        0        0        0        0        8        0      219      432     1338     1302     1302     3598     5140     1302     3597
        1        1        1        1        0        0        0        0        8        0      220      298      397      470      470     3278     3505      470     3279
        1        1        1        1        0        0        0        0        8        0      221      321      271     1110     1110     3204     3207     1110     3337
        1        1        1        1        0        0        0        0        8        0      222      314      228     1096     1096     3101     3102     1096     3315
        1        1        1        1        0        0        0        0        8        0      223      322      289      323      323     3255     3256      323     3338
        1        1        1        1        0        0        0        0        8        0      224      361      274      369      369     3214     3215      369     3431
        1        1        1        1        0        0        0        0        8        0      225      169      205     1132     1132     2949     3043     1132     2950
        1        1        1        1        0        0        0        0        8        0      226      153      189     1090     1090     2908     2994     1090     2911
        1        1        1        1        0        0        0        0        8        0      227       83     1278       37       37     2744     2616       37     2615
        1        1        1        1        0        0        0        0        8        0      228     1309     1201       19       19     5106     2562       19     2564
        1        1        1        1        0        0        0        0        8        0      229      371     1137      327      327     3451     3352      327     3350
        1        1        1        1        0        0        0        0        8        0     2281     2062     2079     2080     2080     6488     6491     2080     6490
        1        1        1        1        0        0        0        0        8        0     2282     1666     2010     1987     1987     6297     6298     1987     6238
        1        1        1        1        0        0        0        0        8        0     2283     1923     1986     1711     1711     6237     6236     1711     6075
        1        1        1        1        0        0        0        0        8        0     2284     1936     1997     1938     1938     6264     6265     1938     6113
! ... 2268 like lines cut
!Material Id = {DCEE8979-78F1-40C8-82F9-00E313AE4959}
/wb,elem,end               !  done creating elements
/com,*********** Send User Defined Coordinate System(s) ***********
csys,0
toffst,273.15,  ! Temperature offset from absolute zero
/com,*********** Set Reference Temperature ***********
tref,22.
/wb,mat,start              !  starting to send materials
/com,*********** Send Materials ***********
MP,EX,1,20000,	! tonne s^-2 mm^-1
MP,NUXY,1,0.3,

/wb,mat,end                !  done sending materials
/com,*********** Send Sheet Properties ***********
r,1,0.1

!************************* Model Summary ********************
!Surface Body,	Paper,	matid,	1
!************************* End Model Summary ********************
! get the diagonal of the bounding box. Needed later for other things
*get,_xmin,node,,mnloc,x
*get,_ymin,node,,mnloc,y
*get,_zmin,node,,mnloc,z
*get,_xmax,node,,mxloc,x
*get,_ymax,node,,mxloc,y
*get,_zmax,node,,mxloc,z
_ASMDIAG=(_xmax-_xmin)*(_xmax-_xmin)+(_ymax-_ymin)*(_ymax-_ymin)+(_zmax-_zmin)*(_zmax-_zmin)
_ASMDIAG=SQRT(_ASMDIAG)
/wb,contact,start          !  starting to send contact
/wb,contact,end            !  done creating contacts
/golist
/wb,load,start             !  starting to send loads
/com,********* Frictionless Supports X *********
CMBLOCK,_FRICSUX,NODE,      123
(8i10)
      2201      2202      2203      2204      2205      2206      2207      2208
      2209      2210      2211      2212      2213      2214      2215      2216
      2217      2218      2219      2220      2221      2222      2223      2224
      2225      2226      2227      2228      2229      2230      2231      2232
      2233      2234      2235      2236      2237      2238      2239      2240
      2241      2346      2347      2348      2349      2350      2351      2352
      2353      2354      2355      2356      2357      2358      2359      2360
      2361      2362      2363      2364      2365      2366      6730      6731
      6732      6733      6734      6735      6736      6737      6738      6739
      6740      6741      6742      6743      6744      6745      6746      6747
      6748      6749      6750      6751      6752      6753      6754      6755
      6756      6757      6758      6759      6760      6761      6762      6763
      6764      6765      6766      6767      6768      6770      6979      6981
      6983      6985      6987      6989      6991      6993      6995      6997
      6999      7001      7003      7005      7007      7009      7011      7013
      7014      7016      7018
cmsel,s,_FRICSUX
d,all,ux,0
nsel,all
/com,********* Frictionless Supports Y *********
CMBLOCK,_FRICSUY,NODE,       91
(8i10)
      1575      1577      1579      1584      1591      2157      2158      2159
      2160      2161      2162      2163      2164      2165      2166      2167
      2168      2169      2170      2171      2172      2173      2174      2175
      2176      2177      2178      2179      2187      2264      2265      2266
      2267      2268      2269      2270      2271      2272      2273      2274
      2275      2276      2277      2278      2279      2291      5614      5615
      5620      5621      5622      5623      5633      6699      6700      6701
      6702      6703      6704      6705      6706      6707      6708      6709
      6710      6711      6712      6713      6714      6715      6716      6717
      6718      6719      6815      6817      6819      6821      6823      6825
      6827      6829      6831      6833      6835      6837      6839      6841
      6843      6865      6866
cmsel,s,_FRICSUY
d,all,uy,0
nsel,all
/com,********** Rotational Supports Z **********
CMBLOCK,_ROTSUZ ,NODE,      214
(8i10)
      1575      1577      1579      1584      1591      2157      2158      2159
      2160      2161      2162      2163      2164      2165      2166      2167
      2168      2169      2170      2171      2172      2173      2174      2175
      2176      2177      2178      2179      2187      2201      2202      2203
      2204      2205      2206      2207      2208      2209      2210      2211
      2212      2213      2214      2215      2216      2217      2218      2219
      2220      2221      2222      2223      2224      2225      2226      2227
      2228      2229      2230      2231      2232      2233      2234      2235
      2236      2237      2238      2239      2240      2241      2264      2265
      2266      2267      2268      2269      2270      2271      2272      2273
      2274      2275      2276      2277      2278      2279      2291      2346
      2347      2348      2349      2350      2351      2352      2353      2354
      2355      2356      2357      2358      2359      2360      2361      2362
      2363      2364      2365      2366      5614      5615      5620      5621
      5622      5623      5633      6699      6700      6701      6702      6703
      6704      6705      6706      6707      6708      6709      6710      6711
      6712      6713      6714      6715      6716      6717      6718      6719
      6730      6731      6732      6733      6734      6735      6736      6737
      6738      6739      6740      6741      6742      6743      6744      6745
      6746      6747      6748      6749      6750      6751      6752      6753
! ... 7 like lines cut
cmsel,s,_ROTSUZ
d,all,rotz,0
nsel,all
/com,*********** Define Pressure Vector Using Surface Effect Elements ***********
local,12,0,0.,0.,0.,0.,0.,0.
csys,0
et,2,153
keyop,2,3,10        ! get plane stress option and thickness from underlying element
eblock,10,,,10
(15i9)
     2288        2        2        2       12     2366     2242     7017
     2289        2        2        2       12     2250     2263     6811
     2290        2        2        2       12     2249     2250     6787
     2291        2        2        2       12     2248     2249     6785
     2292        2        2        2       12     2247     2248     6783
     2293        2        2        2       12     2246     2247     6781
     2294        2        2        2       12     2245     2246     6779
     2295        2        2        2       12     2244     2245     6777
     2296        2        2        2       12     2243     2244     6775
     2297        2        2        2       12     2242     2243     6773
-1
esel,s,type,,2
keyop,2,2,1                ! Apply load in local coordinate system
keyop,2,7,0                ! Use deformed area for application of load
keyop,2,11,2               ! Use real and not project area
esel,all
/gst,on,on
fini
*get,_numnode,node,0,count
*get,_numelem,elem,0,count
*get, _MAXELEMNUM, elem, 0, NUM, MAX
*get, _MAXNODENUM, node, 0, NUM, MAX
*get, _MAXELEMTYPE, etyp, 0, NUM, MAX
*get, _MAXREALCONST, real, 0, NUM, MAX
/go
/wb,load,end               !  done creating loads
/com,--- Number of total nodes = %_numnode%
/com,--- Number of contact elements = 10
/com,--- Number of spring elements = 0
/com,--- Number of bearing elements = 0
/com,--- Number of solid elements = 2287
/com,--- Number of condensed parts = 0
/com,--- Number of total elements = %_numelem%
*get,_wallbsol,active,,time,wall
/com,****************************************************************************
/com,*************************    SOLUTION       ********************************
/com,****************************************************************************
/solu
antype,0                   ! static analysis
_thickRatio=  0     ! Ratio of thick parts in the model
eqsl,sparse,,,,,1
cntr,print,1               ! print out contact info and also make no initial contact an error
dmpoption,emat,no             ! Don't combine emat file for DANSYS
dmpoption,esav,no             ! Don't combine esav file for DANSYS
nldiag,cont,iter           ! print out contact info each equilibrium iteration
rescontrol,,none                 ! Do not keep any restart files
/com,****************************************************
/com,******************* SOLVE FOR LS 1 OF 1 ****************
esel,s,type,,2
nsle
sfe,all,1,pres,1,0.
sfe,all,2,pres,1,20.
nsel,all
esel,all
/nopr
/gopr
nsub,1,1,1
time,1.
outres,erase
outres,all,none
outres,nsol,all,
outres,rsol,all
outres,eangl,all
outres,etmp,all
outres,veng,all
outres,strs,all,
outres,epel,all,
outres,eppl,all,
outres,cont,all,
! *********** WB SOLVE COMMAND ***********
! check interactive state
*get,ANSINTER_,active,,int
*if,ANSINTER_,ne,0,then
/eof
*endif
solve
/com *************** Write FE CONNECTORS ********* 
CEWRITE,file,ce,,INTE
/com,****************************************************
/com,*************** FINISHED SOLVE FOR LS 1 *************
*get,_wallasol,active,,time,wall
/nopr
*get,_numnode,node,0,count
*get,_numelem,elem,0,count
*get, _MAXELEMNUM, elem, 0, NUM, MAX
*get, _MAXNODENUM, node, 0, NUM, MAX,,,INTERNAL
*get, _MAXELEMTYPE, etyp, 0, NUM, MAX
*get, _MAXREALCONST, real, 0, NUM, MAX
/gopr
/post1
xmlo,ENCODING,ISO-8859-1
xmlo,parm
/xml,parm,xml
fini
/gopr
*get,_walldone,active,,time,wall
_preptime=(_wallbsol-_wallstrt)*3600
_solvtime=(_wallasol-_wallbsol)*3600
_posttime=(_walldone-_wallasol)*3600
_totaltim=(_walldone-_wallstrt)*3600
*get,_dlbratio,active,0,solu,dlbr
*get,_combtime,active,0,solu,comb
/com,--- Total number of nodes = %_numnode%
/com,--- Total number of elements = %_numelem%
/com,--- Element load balance ratio = %_dlbratio%
/com,--- Time to combine distributed files = %_combtime%
/wb,file,end               ! done with WB generated input
