/batch
/config,noeldb,1     ! force off writing results to database
*get,_wallstrt,active,,time,wall
! ANSYS input file written by Workbench version 2020 R2
! File used for geometry attach: C:\Users\shohei\Downloads\fem-izumi\5-3-4\beam with a hole_files\dp0\SYS\DM\SYS.agdb
/title,beam with a hole--Static Structural (A5)
*DIM,_wb_ProjectScratch_dir,string,248
_wb_ProjectScratch_dir(1) = 'C:\Users\shohei\Downloads\fem-izumi\5-3-4\_ProjectScratch\ScrDF22\'
*DIM,_wb_SolverFiles_dir,string,248
_wb_SolverFiles_dir(1) = 'C:\Users\shohei\Downloads\fem-izumi\5-3-4\beam with a hole_files\dp0\SYS\MECH\'
*DIM,_wb_userfiles_dir,string,248
_wb_userfiles_dir(1) = 'C:\Users\shohei\Downloads\fem-izumi\5-3-4\beam with a hole_files\user_files\'
/com,--- Data in consistent NMM units. See Solving Units in the help system for more information.
/units,MPA
/nopr
/wb,file,start              !  signify a WB generated input file
/prep7
! Turn off shape checking because checks already performed inside WB mesher.
! See help system for more information.
SHPP,OFF,,NOWARN
/nolist
etcon,set             ! allow ANSYS to choose best KEYOP's for 180x elements
/com,*********** Nodes for the whole assembly ***********
nblock,3,,13326
(1i9,3e20.9e3)
        1     4.564378310E+01     2.619031397E+01     0.000000000E+00
        2     4.825383063E+01     2.450433000E+01     0.000000000E+00
        3     4.913636618E+01     2.850159891E+01     0.000000000E+00
        4     5.128617022E+01     2.547012305E+01     0.000000000E+00
        5     8.424373785E+01     1.208986898E+02     0.000000000E+00
        6     9.198766174E+01     1.553306554E+02     0.000000000E+00
        7     8.617336276E+01     1.461623618E+02     0.000000000E+00
        8     8.294467641E+01     1.486787871E+02     0.000000000E+00
        9     8.698674925E+01     1.255588046E+02     0.000000000E+00
       10     8.308483212E+01     1.424169748E+02     0.000000000E+00
       11     9.140539218E+01     1.498067352E+02     0.000000000E+00
       12     8.761675645E+01     1.381780874E+02     0.000000000E+00
       13     9.092630395E+01     1.282328749E+02     0.000000000E+00
       14     8.966794972E+01     1.188821905E+02     0.000000000E+00
       15     9.178741178E+01     1.604926266E+02     0.000000000E+00
       16     9.214157464E+01     1.059761738E+02     0.000000000E+00
       17     8.341480830E+01     6.101722895E+01     0.000000000E+00
       18     9.059978422E+01     7.685870454E+01     0.000000000E+00
       19     9.018549891E+01     7.155560563E+01     0.000000000E+00
       20     8.974525640E+01     6.637924284E+01     0.000000000E+00
! ... 12096 like lines cut
/wb,elem,start            !  set before creation of elements
/com,*********** Elements for Body 1 "Surface Body" ***********
et,1,183
keyo,1,3,3
eblock,19,solid,,3932
(19i9)
        1        1        1        1        0        0        0        0        8        0      924      246       66      144      144     4389     4388      144     4588
        1        1        1        1        0        0        0        0        8        0      925      594       59        8        8     4366     4216        8     4217
        1        1        1        1        0        0        0        0        8        0      926       13        9      602      602     4219     4221      602     4233
        1        1        1        1        0        0        0        0        8        0      927       25       23       22       22     4265     4261       22     4262
        1        1        1        1        0        0        0        0        8        0      928      147      122      606      606     4536     4539      606     4596
        1        1        1        1        0        0        0        0        8        0      929      229      228      168      168     4803     4656      168     4657
        1        1        1        1        0        0        0        0        8        0     3927     1144     1174     1143     1143     6459     6458     1143     6380
        1        1        1        1        0        0        0        0        8        0     3928     1154     1172     1153     1153     6453     6452     1153     6407
        1        1        1        1        0        0        0        0        8        0     3929     1041     1067      947      947     6282     6281      947     6201
        1        1        1        1        0        0        0        0        8        0     3930      939     1065     1037     1037     6272     6274     1037     6189
        1        1        1        1        0        0        0        0        8        0     3931     1034     1062      957      957     6263     6262      957     6181
        1        1        1        1        0        0        0        0        8        0     3932     1019     1057     1020     1020     6246     6247     1020     6143
        1        1        1        1        0        0        0        0        8        0        1      891      812      490      744     5463     5940     5477     5461
        1        1        1        1        0        0        0        0        8        0        2      743      491      812      891     5466     5937     5463     5462
        1        1        1        1        0        0        0        0        8        0        3      890      813      491      743     5468     5948     5466     5465
        1        1        1        1        0        0        0        0        8        0        4      762      492      813      890     5648     5945     5468     5467
        1        1        1        1        0        0        0        0        8        0        5      889      809      488      746     5472     5924     5488     5470
        1        1        1        1        0        0        0        0        8        0        6      811      489      809      889     5476     5921     5472     5471
        1        1        1        1        0        0        0        0        8        0        7      888      810      489      811     5479     5932     5476     5475
        1        1        1        1        0        0        0        0        8        0        8      744      490      810      888     5477     5929     5479     5478
! ... 3913 like lines cut
!Material Id = {A6F7ACD7-FB7F-4E56-BFAB-947419C0F518}
/wb,elem,end               !  done creating elements
/com,*********** Send User Defined Coordinate System(s) ***********
csys,0
toffst,273.15,  ! Temperature offset from absolute zero
/com,*********** Set Reference Temperature ***********
tref,22.
/wb,mat,start              !  starting to send materials
/com,*********** Send Materials ***********
MP,EX,1,205000,	! tonne s^-2 mm^-1
MP,NUXY,1,0.28,

/wb,mat,end                !  done sending materials
/com,*********** Send Sheet Properties ***********
r,1,20.

!************************* Model Summary ********************
!Surface Body,	S45C,	matid,	1
!************************* End Model Summary ********************
! get the diagonal of the bounding box. Needed later for other things
*get,_xmin,node,,mnloc,x
*get,_ymin,node,,mnloc,y
*get,_zmin,node,,mnloc,z
*get,_xmax,node,,mxloc,x
*get,_ymax,node,,mxloc,y
*get,_zmax,node,,mxloc,z
_ASMDIAG=(_xmax-_xmin)*(_xmax-_xmin)+(_ymax-_ymin)*(_ymax-_ymin)+(_zmax-_zmin)*(_zmax-_zmin)
_ASMDIAG=SQRT(_ASMDIAG)
/wb,contact,start          !  starting to send contact
/wb,contact,end            !  done creating contacts
/golist
/wb,load,start             !  starting to send loads
/com,*********** Fixed Supports ***********
CMBLOCK,_FIXEDSU,NODE,       17
(8i10)
      4014      4015      4016      4017      4018      4019      4020      4021
      4026     11907     11909     11911     11913     11915     11917     11919
     11927
cmsel,s,_FIXEDSU
d,all,all
nsel,all
/com,********* Frictionless Supports X *********
CMBLOCK,_FRICSUX,NODE,       42
(8i10)
       892       929       931       933      3738      3739      3740      3741
      3742      3743      3744      3745      3783      3784      3785      3786
      3787      3788      3789      3790      3791      3816      5970      5972
      6046      6047      6049      6050      6051      6052     11478     11479
     11480     11481     11482     11484     11485     11486     11487     11488
     11489     11513
cmsel,s,_FRICSUX
d,all,ux,0
nsel,all
/com,********** Rotational Supports Z **********
CMBLOCK,_ROTSUZ ,NODE,       42
(8i10)
       892       929       931       933      3738      3739      3740      3741
      3742      3743      3744      3745      3783      3784      3785      3786
      3787      3788      3789      3790      3791      3816      5970      5972
      6046      6047      6049      6050      6051      6052     11478     11479
     11480     11481     11482     11484     11485     11486     11487     11488
     11489     11513
cmsel,s,_ROTSUZ
d,all,rotz,0
nsel,all
/com,*********** Define Pressure Vector Using Surface Effect Elements ***********
local,12,0,0.,0.,0.,0.,0.,0.
csys,0
et,2,153
keyop,2,3,10        ! get plane stress option and thickness from underlying element
eblock,10,,,25
(15i9)
     3933        2        2        2       12     3815     3985    11849
     3934        2        2        2       12     3814     3815    11512
     3935        2        2        2       12     3813     3814    11511
     3936        2        2        2       12     3812     3813    11510
     3937        2        2        2       12     3811     3812    11509
     3938        2        2        2       12     3810     3811    11508
     3939        2        2        2       12     3809     3810    11507
     3940        2        2        2       12     3808     3809    11506
     3941        2        2        2       12     3807     3808    11505
     3942        2        2        2       12     3806     3807    11504
     3943        2        2        2       12     3805     3806    11503
     3944        2        2        2       12     3804     3805    11502
     3945        2        2        2       12     3803     3804    11501
     3946        2        2        2       12     3802     3803    11500
     3947        2        2        2       12     3801     3802    11499
     3948        2        2        2       12     3800     3801    11498
     3949        2        2        2       12     3799     3800    11497
     3950        2        2        2       12     3798     3799    11496
     3951        2        2        2       12     3797     3798    11495
     3952        2        2        2       12     3796     3797    11494
! ... 6 like lines cut
esel,s,type,,2
keyop,2,2,1                ! Apply load in local coordinate system
keyop,2,7,0                ! Use deformed area for application of load
keyop,2,11,2               ! Use real and not project area
esel,all
/gst,on,on
fini
*get,_numnode,node,0,count
*get,_numelem,elem,0,count
*get, _MAXELEMNUM, elem, 0, NUM, MAX
*get, _MAXNODENUM, node, 0, NUM, MAX
*get, _MAXELEMTYPE, etyp, 0, NUM, MAX
*get, _MAXREALCONST, real, 0, NUM, MAX
/go
/wb,load,end               !  done creating loads
/com,--- Number of total nodes = %_numnode%
/com,--- Number of contact elements = 25
/com,--- Number of spring elements = 0
/com,--- Number of bearing elements = 0
/com,--- Number of solid elements = 3932
/com,--- Number of condensed parts = 0
/com,--- Number of total elements = %_numelem%
*get,_wallbsol,active,,time,wall
/com,****************************************************************************
/com,*************************    SOLUTION       ********************************
/com,****************************************************************************
/solu
antype,0                   ! static analysis
_thickRatio=  0     ! Ratio of thick parts in the model
eqsl,sparse,,,,,1
cntr,print,1               ! print out contact info and also make no initial contact an error
dmpoption,emat,no             ! Don't combine emat file for DANSYS
dmpoption,esav,no             ! Don't combine esav file for DANSYS
nldiag,cont,iter           ! print out contact info each equilibrium iteration
rescontrol,,none                 ! Do not keep any restart files
/com,****************************************************
/com,******************* SOLVE FOR LS 1 OF 1 ****************
esel,s,type,,2
nsle
sfe,all,1,pres,1,0.
sfe,all,2,pres,1,-40.
nsel,all
esel,all
/nopr
/gopr
nsub,1,1,1
time,1.
outres,erase
outres,all,none
outres,nsol,all,
outres,rsol,all
outres,eangl,all
outres,etmp,all
outres,veng,all
outres,strs,all,
outres,epel,all,
outres,eppl,all,
outres,cont,all,
! *********** WB SOLVE COMMAND ***********
! check interactive state
*get,ANSINTER_,active,,int
*if,ANSINTER_,ne,0,then
/eof
*endif
solve
/com *************** Write FE CONNECTORS ********* 
CEWRITE,file,ce,,INTE
/com,****************************************************
/com,*************** FINISHED SOLVE FOR LS 1 *************
*get,_wallasol,active,,time,wall
/nopr
*get,_numnode,node,0,count
*get,_numelem,elem,0,count
*get, _MAXELEMNUM, elem, 0, NUM, MAX
*get, _MAXNODENUM, node, 0, NUM, MAX,,,INTERNAL
*get, _MAXELEMTYPE, etyp, 0, NUM, MAX
*get, _MAXREALCONST, real, 0, NUM, MAX
/gopr
/post1
xmlo,ENCODING,ISO-8859-1
xmlo,parm
/xml,parm,xml
fini
/gopr
*get,_walldone,active,,time,wall
_preptime=(_wallbsol-_wallstrt)*3600
_solvtime=(_wallasol-_wallbsol)*3600
_posttime=(_walldone-_wallasol)*3600
_totaltim=(_walldone-_wallstrt)*3600
*get,_dlbratio,active,0,solu,dlbr
*get,_combtime,active,0,solu,comb
/com,--- Total number of nodes = %_numnode%
/com,--- Total number of elements = %_numelem%
/com,--- Element load balance ratio = %_dlbratio%
/com,--- Time to combine distributed files = %_combtime%
/wb,file,end               ! done with WB generated input
