/batch
/config,noeldb,1     ! force off writing results to database
*get,_wallstrt,active,,time,wall
! ANSYS input file written by Workbench version 2020 R2
! File used for geometry attach: C:\Users\shohei\Downloads\fem-izumi\5-3-6\clearance groove undercut shaft_files\dp0\SYS\DM\SYS.agdb
/title,clearance groove undercut shaft--Static Structural (A5)
*DIM,_wb_ProjectScratch_dir,string,248
_wb_ProjectScratch_dir(1) = 'C:\Users\shohei\Downloads\fem-izumi\5-3-6\_ProjectScratch\Scr09FD\'
*DIM,_wb_SolverFiles_dir,string,248
_wb_SolverFiles_dir(1) = 'C:\Users\shohei\Downloads\fem-izumi\5-3-6\clearance groove undercut shaft_files\dp0\SYS\MECH\'
*DIM,_wb_userfiles_dir,string,248
_wb_userfiles_dir(1) = 'C:\Users\shohei\Downloads\fem-izumi\5-3-6\clearance groove undercut shaft_files\user_files\'
/com,--- Data in consistent NMM units. See Solving Units in the help system for more information.
/units,MPA
/nopr
/wb,file,start              !  signify a WB generated input file
/prep7
! Turn off shape checking because checks already performed inside WB mesher.
! See help system for more information.
SHPP,OFF,,NOWARN
/nolist
etcon,set             ! allow ANSYS to choose best KEYOP's for 180x elements
/com,*********** Nodes for the whole assembly ***********
nblock,3,,2317
(1i9,3e20.9e3)
        1     2.719654785E+01     4.735644119E+01     0.000000000E+00
        2     2.333031637E+01     2.892978314E+01     0.000000000E+00
        3     2.278063075E+01     2.685148142E+01     0.000000000E+00
        4     2.597782988E+01     2.786521390E+01     0.000000000E+00
        5     2.475430880E+01     2.452071885E+01     0.000000000E+00
        6     2.344102067E+01     3.165603984E+01     0.000000000E+00
        7     2.628144890E+01     3.097577468E+01     0.000000000E+00
        8     2.826083747E+01     2.415099304E+01     0.000000000E+00
        9     2.056281231E+01     3.213678573E+01     0.000000000E+00
       10     2.154532958E+01     2.104651417E+01     0.000000000E+00
       11     2.121435890E+01     2.382766814E+01     0.000000000E+00
       12     2.055335817E+01     2.662004997E+01     0.000000000E+00
       13     2.038007311E+01     2.948301070E+01     0.000000000E+00
       14     2.908746690E+01     3.034295018E+01     0.000000000E+00
       15     2.869287662E+01     2.720729940E+01     0.000000000E+00
       16     2.812723129E+01     2.111225932E+01     0.000000000E+00
       17     3.213582557E+01     3.294956048E+01     0.000000000E+00
       18     1.841692129E+01     1.801435158E+01     0.000000000E+00
       19     1.761824442E+01     3.248625177E+01     0.000000000E+00
       20     2.075416070E+01     3.483687808E+01     0.000000000E+00
! ... 2088 like lines cut
/wb,elem,start            !  set before creation of elements
/com,*********** Elements for Body 1 "Surface Body" ***********
et,1,183
keyo,1,3,1
eblock,19,solid,,658
(19i9)
        1        1        1        1        0        0        0        0        8        0      200       75       97       74       74     1018     1015       74     1013
        1        1        1        1        0        0        0        0        8        0      201       72      367      399      399     1008     1545      399     1009
        1        1        1        1        0        0        0        0        8        0        1      344      439      576      462     1580     1668     1670     1669
        1        1        1        1        0        0        0        0        8        0        2      462      586      246      344     1616      726     1427     1669
        1        1        1        1        0        0        0        0        8        0        3      159      246      586      445     1231      726     1614     1563
        1        1        1        1        0        0        0        0        8        0        4      419      382      418      444      727     1567     1566     1565
        1        1        1        1        0        0        0        0        8        0        5      419      434      313      382     1587     1585     1497      727
        1        1        1        1        0        0        0        0        8        0        6      239      413      447      240      728     1560     1557     1412
        1        1        1        1        0        0        0        0        8        0        7      239      412      440      413     1577     1579     1578      728
        1        1        1        1        0        0        0        0        8        0        8      421      347      424      437      729     1582     1584     1583
        1        1        1        1        0        0        0        0        8        0        9      421      439      344      347     1581     1580     1528      729
        1        1        1        1        0        0        0        0        8        0       10      382      165      156      410     1243     1223     1224     1257
        1        1        1        1        0        0        0        0        8        0       11      382      410      443      418     1257     1569     1568     1567
        1        1        1        1        0        0        0        0        8        0       12      156      409      446      410      730     1562     1561     1224
        1        1        1        1        0        0        0        0        8        0       13      445      105       71      159     1100     1005     1006     1563
        1        1        1        1        0        0        0        0        8        0       14      445      409      156      105     1564      730     1101     1100
        1        1        1        1        0        0        0        0        8        0       15       99      106      107      237     1083     1102     1104     1408
        1        1        1        1        0        0        0        0        8        0       16      320       99      237      321     1410     1408     1409     1498
        1        1        1        1        0        0        0        0        8        0       17      442      238       99      320     1571     1085     1410     1570
        1        1        1        1        0        0        0        0        8        0       18      411      442      427        1     1573     1572      732      731
! ... 639 like lines cut
!Material Id = {A75A1DA6-9C65-4C97-9357-83DC3BB13F18}
/wb,elem,end               !  done creating elements
/com,*********** Send User Defined Coordinate System(s) ***********
csys,0
toffst,273.15,  ! Temperature offset from absolute zero
/com,*********** Set Reference Temperature ***********
tref,22.
/wb,mat,start              !  starting to send materials
/com,*********** Send Materials ***********
MP,EX,1,205000,	! tonne s^-2 mm^-1
MP,NUXY,1,0.28,

/wb,mat,end                !  done sending materials
/com,*********** Send Sheet Properties ***********
!************************* Model Summary ********************
!Surface Body,	S45C,	matid,	1
!************************* End Model Summary ********************
! get the diagonal of the bounding box. Needed later for other things
*get,_xmin,node,,mnloc,x
*get,_ymin,node,,mnloc,y
*get,_zmin,node,,mnloc,z
*get,_xmax,node,,mxloc,x
*get,_ymax,node,,mxloc,y
*get,_zmax,node,,mxloc,z
_ASMDIAG=(_xmax-_xmin)*(_xmax-_xmin)+(_ymax-_ymin)*(_ymax-_ymin)+(_zmax-_zmin)*(_zmax-_zmin)
_ASMDIAG=SQRT(_ASMDIAG)
/wb,contact,start          !  starting to send contact
/wb,contact,end            !  done creating contacts
/golist
/wb,load,start             !  starting to send loads
/com,*********** Fixed Supports ***********
CMBLOCK,_FIXEDSU,NODE,       17
(8i10)
       676       677       678       679       680       681       682       683
       716      2057      2058      2059      2060      2061      2062      2064
      2096
cmsel,s,_FIXEDSU
d,all,all
nsel,all
/com,*********** Define Pressure Vector Using Surface Effect Elements ***********
local,12,0,0.,0.,0.,0.,0.,0.
csys,0
et,2,153
keyop,2,3,10        ! get plane stress option and thickness from underlying element
eblock,10,,,8
(15i9)
      659        2        2        2       12      724      717     2105
      660        2        2        2       12      717      718     2098
      661        2        2        2       12      718      719     2099
      662        2        2        2       12      719      720     2100
      663        2        2        2       12      720      721     2101
      664        2        2        2       12      721      722     2102
      665        2        2        2       12      722      723     2103
      666        2        2        2       12      723      725     2107
-1
esel,s,type,,2
keyop,2,2,1                ! Apply load in local coordinate system
keyop,2,7,0                ! Use deformed area for application of load
keyop,2,11,2               ! Use real and not project area
esel,all
/gst,on,on
fini
*get,_numnode,node,0,count
*get,_numelem,elem,0,count
*get, _MAXELEMNUM, elem, 0, NUM, MAX
*get, _MAXNODENUM, node, 0, NUM, MAX
*get, _MAXELEMTYPE, etyp, 0, NUM, MAX
*get, _MAXREALCONST, real, 0, NUM, MAX
/go
/wb,load,end               !  done creating loads
/com,--- Number of total nodes = %_numnode%
/com,--- Number of contact elements = 8
/com,--- Number of spring elements = 0
/com,--- Number of bearing elements = 0
/com,--- Number of solid elements = 658
/com,--- Number of condensed parts = 0
/com,--- Number of total elements = %_numelem%
*get,_wallbsol,active,,time,wall
/com,****************************************************************************
/com,*************************    SOLUTION       ********************************
/com,****************************************************************************
/solu
antype,0                   ! static analysis
_thickRatio=  0     ! Ratio of thick parts in the model
eqsl,sparse,,,,,1
cntr,print,1               ! print out contact info and also make no initial contact an error
dmpoption,emat,no             ! Don't combine emat file for DANSYS
dmpoption,esav,no             ! Don't combine esav file for DANSYS
nldiag,cont,iter           ! print out contact info each equilibrium iteration
rescontrol,,none                 ! Do not keep any restart files
/com,****************************************************
/com,******************* SOLVE FOR LS 1 OF 1 ****************
esel,s,type,,2
nsle
sfe,all,1,pres,1,0.
sfe,all,2,pres,1,100.
nsel,all
esel,all
/nopr
/gopr
nsub,1,1,1
time,1.
outres,erase
outres,all,none
outres,nsol,all,
outres,rsol,all
outres,eangl,all
outres,etmp,all
outres,veng,all
outres,strs,all,
outres,epel,all,
outres,eppl,all,
outres,cont,all,
! *********** WB SOLVE COMMAND ***********
! check interactive state
*get,ANSINTER_,active,,int
*if,ANSINTER_,ne,0,then
/eof
*endif
solve
/com *************** Write FE CONNECTORS ********* 
CEWRITE,file,ce,,INTE
/com,****************************************************
/com,*************** FINISHED SOLVE FOR LS 1 *************
*get,_wallasol,active,,time,wall
/nopr
*get,_numnode,node,0,count
*get,_numelem,elem,0,count
*get, _MAXELEMNUM, elem, 0, NUM, MAX
*get, _MAXNODENUM, node, 0, NUM, MAX,,,INTERNAL
*get, _MAXELEMTYPE, etyp, 0, NUM, MAX
*get, _MAXREALCONST, real, 0, NUM, MAX
/gopr
/post1
xmlo,ENCODING,ISO-8859-1
xmlo,parm
/xml,parm,xml
fini
/gopr
*get,_walldone,active,,time,wall
_preptime=(_wallbsol-_wallstrt)*3600
_solvtime=(_wallasol-_wallbsol)*3600
_posttime=(_walldone-_wallasol)*3600
_totaltim=(_walldone-_wallstrt)*3600
*get,_dlbratio,active,0,solu,dlbr
*get,_combtime,active,0,solu,comb
/com,--- Total number of nodes = %_numnode%
/com,--- Total number of elements = %_numelem%
/com,--- Element load balance ratio = %_dlbratio%
/com,--- Time to combine distributed files = %_combtime%
/wb,file,end               ! done with WB generated input
