/batch
/config,noeldb,1     ! force off writing results to database
*get,_wallstrt,active,,time,wall
! ANSYS input file written by Workbench version 2020 R2
! File used for geometry attach: C:\Users\shohei\Downloads\fem-izumi\5-2\simple support beam_files\dp0\SYS\DM\SYS.agdb
/title,simple support beam--Static Structural (A5)
*DIM,_wb_ProjectScratch_dir,string,248
_wb_ProjectScratch_dir(1) = 'C:\Users\shohei\Downloads\fem-izumi\5-2\_ProjectScratch\Scr0010\'
*DIM,_wb_SolverFiles_dir,string,248
_wb_SolverFiles_dir(1) = 'C:\Users\shohei\Downloads\fem-izumi\5-2\simple support beam_files\dp0\SYS\MECH\'
*DIM,_wb_userfiles_dir,string,248
_wb_userfiles_dir(1) = 'C:\Users\shohei\Downloads\fem-izumi\5-2\simple support beam_files\user_files\'
/com,--- Data in consistent NMM units. See Solving Units in the help system for more information.
/units,MPA
/nopr
/wb,file,start              !  signify a WB generated input file
/prep7
! Turn off shape checking because checks already performed inside WB mesher.
! See help system for more information.
SHPP,OFF,,NOWARN
/nolist
etcon,set             ! allow ANSYS to choose best KEYOP's for 180x elements
/com,*********** Nodes for the whole assembly ***********
nblock,3,,6284
(1i9,3e20.9e3)
        1     4.947929536E-01     1.276036077E+00     7.987690549E+01
        2     1.172408923E+00    -1.920545340E-01     1.534776382E+00
        3     1.250000000E+00    -1.250000000E+00     2.272727273E+00
        4     2.229473895E-01    -2.505183134E-02     4.298354000E+01
        5    -1.660065199E-01    -1.784900063E-01     4.824656684E+01
        6    -9.615384615E-02     9.615384615E-02     6.643356643E+00
        7    -3.323297370E-01    -1.642424917E-02     2.943447824E+01
        8    -8.111170347E-02     8.640392779E-02     1.563693203E+01
        9     8.378185502E-02    -1.640447769E-01     9.290082753E+01
       10     4.752613819E-01     1.952705760E-02     8.017283063E+01
       11    -1.670130823E-01     9.433432333E-02     8.906119502E+01
       12     9.728315882E-02    -8.667917262E-02     6.566449361E+01
       13     4.015692989E-02    -3.350758559E-01     2.049134301E+01
       14     2.569869809E-01    -1.309658039E-01     3.875422567E+01
       15    -5.555555556E-01     4.818676322E-17     5.277777778E+01
       16    -1.176149987E-02     5.324368186E-01     3.347126595E+01
       17    -1.109466053E+00     9.554657386E-01     9.887952769E+01
       18    -1.209245811E+00    -4.075418879E-02     9.904210373E+01
       19     1.377925663E+00     1.172852223E+00     9.710731651E+01
       20     4.075418879E-02     1.209245811E+00     9.904210373E+01
! ... 5694 like lines cut
/wb,elem,start            !  set before creation of elements
/com,*********** Elements for Body 1 "Solid" ***********
et,1,187
eblock,19,solid,,3205
(19i9)
        1        1        1        1        0        0        0        0       10        0        1      167      169      405      253     4975     1030     1031      924
     1397     1102
        1        1        1        1        0        0        0        0       10        0        2      433      167      405      253     1892     1031     1100     5612
      924     1102
        1        1        1        1        0        0        0        0       10        0        3      169      167      161      253     4975     2356     4918     1397
      924      926
        1        1        1        1        0        0        0        0       10        0        4      167      433      161      253     1892      928     2356      924
     5612      926
        1        1        1        1        0        0        0        0       10        0        5      162      433      407      253     1426     1428     1427      925
     5612     5539
        1        1        1        1        0        0        0        0       10        0        6      163      162      407      253     1432     1427     5587     1440
      925     5539
        1        1        1        1        0        0        0        0       10        0        7      433      162      161      253     1426     2350      928     5612
      925      926
        1        1        1        1        0        0        0        0       10        0        8      162      163      161      253     1432     4917     2350      925
     1440      926
        1        1        1        1        0        0        0        0       10        0        9      253      169      152      161     1397     1394     1398      926
     4918     1153
        1        1        1        1        0        0        0        0       10        0       10      163      253      152      161     1440     1398     4901     4917
      926     1153
! ... 6391 like lines cut
!Material Id = {43C75493-B33E-42CF-A466-D3E012238499}
/wb,elem,end               !  done creating elements
/com,*********** Send User Defined Coordinate System(s) ***********
csys,0
toffst,273.15,  ! Temperature offset from absolute zero
/com,*********** Set Reference Temperature ***********
tref,22.
/wb,mat,start              !  starting to send materials
/com,*********** Send Materials ***********
MP,EX,1,205000,	! tonne s^-2 mm^-1
MP,NUXY,1,0.3,

/wb,mat,end                !  done sending materials
!************************* Model Summary ********************
!Solid,	S45C,	matid,	1
!************************* End Model Summary ********************
! get the diagonal of the bounding box. Needed later for other things
*get,_xmin,node,,mnloc,x
*get,_ymin,node,,mnloc,y
*get,_zmin,node,,mnloc,z
*get,_xmax,node,,mxloc,x
*get,_ymax,node,,mxloc,y
*get,_zmax,node,,mxloc,z
_ASMDIAG=(_xmax-_xmin)*(_xmax-_xmin)+(_ymax-_ymin)*(_ymax-_ymin)+(_zmax-_zmin)*(_zmax-_zmin)
_ASMDIAG=SQRT(_ASMDIAG)
/wb,contact,start          !  starting to send contact
/wb,contact,end            !  done creating contacts
/golist
/wb,load,start             !  starting to send loads
/com,*********** Fixed Supports ***********
CMBLOCK,_FIXEDSU,NODE,        9
(8i10)
       545       689       840       841       910      2025      2028      5515
      5517
cmsel,s,_FIXEDSU
d,all,all
nsel,all
/com,******* Constant Zero Displacement X *******
CMBLOCK,_DISPZEROUX,NODE,        9
(8i10)
       542       652       838       839       888      2824      2829      2856
      2860
cmsel,s,_DISPZEROUX
d,all,ux,0
nsel,all
/com,******* Constant Zero Displacement Y *******
CMBLOCK,_DISPZEROUY,NODE,        9
(8i10)
       542       652       838       839       888      2824      2829      2856
      2860
cmsel,s,_DISPZEROUY
d,all,uy,0
nsel,all
/com,*********** Define Force Using Surface Effect Elements ***********
local,12,0,0.,0.,0.,0.,0.,0.
csys,0
et,2,156
keyop,2,5,1         !  No orientation node
eblock,10,,,4
(15i9)
     4532        2        2        2       12      454      650     2925
     4533        2        2        2       12      887      650     2920
     4534        2        2        2       12      454      605     3420
     4535        2        2        2       12      605      863     3426
-1
esel,s,type,,2
keyop,2,2,1                ! Apply load in local coordinate system
keyop,2,7,1                ! Use original area so load is constant in large deformation
esel,all
/gst,on,on
fini
*get,_numnode,node,0,count
*get,_numelem,elem,0,count
*get, _MAXELEMNUM, elem, 0, NUM, MAX
*get, _MAXNODENUM, node, 0, NUM, MAX
*get, _MAXELEMTYPE, etyp, 0, NUM, MAX
*get, _MAXREALCONST, real, 0, NUM, MAX
/go
/wb,load,end               !  done creating loads
/com,--- Number of total nodes = %_numnode%
/com,--- Number of contact elements = 4
/com,--- Number of spring elements = 0
/com,--- Number of bearing elements = 0
/com,--- Number of solid elements = 3205
/com,--- Number of condensed parts = 0
/com,--- Number of total elements = %_numelem%
*get,_wallbsol,active,,time,wall
/com,****************************************************************************
/com,*************************    SOLUTION       ********************************
/com,****************************************************************************
/solu
antype,0                   ! static analysis
_thickRatio=  1     ! Ratio of thick parts in the model
eqsl,pcg,1e-8,,,,,,1
cntr,print,1               ! print out contact info and also make no initial contact an error
dmpoption,emat,no             ! Don't combine emat file for DANSYS
dmpoption,esav,no             ! Don't combine esav file for DANSYS
nldiag,cont,iter           ! print out contact info each equilibrium iteration
rescontrol,,none                 ! Do not keep any restart files
/com,****************************************************
/com,******************* SOLVE FOR LS 1 OF 1 ****************
esel,s,type,,2
nsle
sfe,all,1,pres,1,0.
sfe,all,2,pres,1,-0.2
sfe,all,3,pres,1,0.
nsel,all
esel,all
/nopr
/gopr
nsub,1,1,1
time,1.
outres,erase
outres,all,none
outres,nsol,all,
outres,rsol,all
outres,eangl,all
outres,etmp,all
outres,veng,all
outres,strs,all,
outres,epel,all,
outres,eppl,all,
outres,cont,all,
! *********** WB SOLVE COMMAND ***********
! check interactive state
*get,ANSINTER_,active,,int
*if,ANSINTER_,ne,0,then
/eof
*endif
solve
/com *************** Write FE CONNECTORS ********* 
CEWRITE,file,ce,,INTE
/com,****************************************************
/com,*************** FINISHED SOLVE FOR LS 1 *************
*get,_wallasol,active,,time,wall
/nopr
*get,_numnode,node,0,count
*get,_numelem,elem,0,count
*get, _MAXELEMNUM, elem, 0, NUM, MAX
*get, _MAXNODENUM, node, 0, NUM, MAX,,,INTERNAL
*get, _MAXELEMTYPE, etyp, 0, NUM, MAX
*get, _MAXREALCONST, real, 0, NUM, MAX
/gopr
*get,_PCGITER,active,,solu,cgiter
/post1
xmlo,ENCODING,ISO-8859-1
xmlo,parm
/xml,parm,xml
fini
/gopr
*get,_walldone,active,,time,wall
_preptime=(_wallbsol-_wallstrt)*3600
_solvtime=(_wallasol-_wallbsol)*3600
_posttime=(_walldone-_wallasol)*3600
_totaltim=(_walldone-_wallstrt)*3600
*get,_dlbratio,active,0,solu,dlbr
*get,_combtime,active,0,solu,comb
/com,--- Total number of nodes = %_numnode%
/com,--- Total number of elements = %_numelem%
/com,--- Element load balance ratio = %_dlbratio%
/com,--- Time to combine distributed files = %_combtime%
/wb,file,end               ! done with WB generated input
