/batch
/config,noeldb,1     ! force off writing results to database
*get,_wallstrt,active,,time,wall
! ANSYS input file written by Workbench version 2020 R2
! File used for geometry attach: C:\Users\shohei\Downloads\fem-izumi\5-3-7\pressure vessel_files\dp0\SYS-1\DM\SYS-1.agdb
/title,pressure vessel--Static Structural (B5)
*DIM,_wb_ProjectScratch_dir,string,248
_wb_ProjectScratch_dir(1) = 'C:\Users\shohei\Downloads\fem-izumi\5-3-7\_ProjectScratch\ScrBEA6\'
*DIM,_wb_SolverFiles_dir,string,248
_wb_SolverFiles_dir(1) = 'C:\Users\shohei\Downloads\fem-izumi\5-3-7\pressure vessel_files\dp0\SYS-1\MECH\'
*DIM,_wb_userfiles_dir,string,248
_wb_userfiles_dir(1) = 'C:\Users\shohei\Downloads\fem-izumi\5-3-7\pressure vessel_files\user_files\'
/com,--- Data in consistent NMM units. See Solving Units in the help system for more information.
/units,MPA
/nopr
/wb,file,start              !  signify a WB generated input file
/prep7
! Turn off shape checking because checks already performed inside WB mesher.
! See help system for more information.
SHPP,OFF,,NOWARN
/nolist
etcon,set             ! allow ANSYS to choose best KEYOP's for 180x elements
/com,*********** Nodes for the whole assembly ***********
nblock,3,,4628
(1i9,3e20.9e3)
        1     8.758418776E+01     1.024760097E+02     0.000000000E+00
        2     1.025180518E+02     8.784953644E+01     0.000000000E+00
        3     9.732971117E+01     1.082622262E+02     0.000000000E+00
        4     9.788883106E+01     1.103979902E+02     0.000000000E+00
        5     1.014389365E+01     1.100043435E+02     0.000000000E+00
        6     9.065475029E+01     1.097520214E+02     0.000000000E+00
        7     9.202579218E+01     1.108915661E+02     0.000000000E+00
        8     9.374325988E+01     1.104526495E+02     0.000000000E+00
        9     1.095273606E+02     9.705155980E+01     0.000000000E+00
       10     1.099870801E+02     1.217469258E+01     0.000000000E+00
       11     1.427637022E+01     1.100212050E+02     0.000000000E+00
       12     1.219474649E+01     1.100178675E+02     0.000000000E+00
       13     1.635934304E+01     1.100210976E+02     0.000000000E+00
       14     2.482708571E+01     1.100395930E+02     0.000000000E+00
       15     3.124572842E+01     1.100585482E+02     0.000000000E+00
       16     3.338015878E+01     1.100456829E+02     0.000000000E+00
       17     3.763352059E+01     1.100459316E+02     0.000000000E+00
       18     4.347180492E+01     1.100571564E+02     0.000000000E+00
       19     4.155722298E+01     1.097659429E+02     0.000000000E+00
       20     4.542126154E+01     1.100633561E+02     0.000000000E+00
! ... 4189 like lines cut
/wb,elem,start            !  set before creation of elements
/com,*********** Elements for Body 1 "Surface Body" ***********
et,1,183
keyo,1,3,1
eblock,19,solid,,1317
(19i9)
        1        1        1        1        0        0        0        0        8        0      239      328      231      414      414     2290     2291      414     2519
        1        1        1        1        0        0        0        0        8        0      240      813      150       68       68     2098     1879       68     1881
        1        1        1        1        0        0        0        0        8        0      241       56      138       57       57     1844     1846       57     1842
        1        1        1        1        0        0        0        0        8        0      242      123      122       40       40     2037     1792       40     1793
        1        1        1        1        0        0        0        0        8        0      243       26       29      864      864     1750     1761      864     1752
        1        1        1        1        0        0        0        0        8        0      244       19       94      865      865     1727     1963      865     1729
        1        1        1        1        0        0        0        0        8        0      245      235      831      796      796     2305     3385      796     2304
        1        1        1        1        0        0        0        0        8        0      246      897      161        9        9     2124     1691        9     1694
        1        1        1        1        0        0        0        0        8        0        1      964      457      965     1005     3450     1447     3452     3451
        1        1        1        1        0        0        0        0        8        0        2      965      457      458     1008     1447     2805     3440     3441
        1        1        1        1        0        0        0        0        8        0        3      966      459      967     1003     3456     1448     3458     3457
        1        1        1        1        0        0        0        0        8        0        4      967      459      460     1006     1448     2808     3447     3448
        1        1        1        1        0        0        0        0        8        0        5      977      871      968     1001     3462     1449     3464     3463
        1        1        1        1        0        0        0        0        8        0        6      968      871      461     1004     1449     2813     3453     3454
        1        1        1        1        0        0        0        0        8        0        7      974      883      969      999     3468     1450     3470     3469
        1        1        1        1        0        0        0        0        8        0        8      969      883      462     1002     1450     2815     3459     3460
        1        1        1        1        0        0        0        0        8        0        9      963     1009      985        1     3439     3438     1452     1451
        1        1        1        1        0        0        0        0        8        0       10     1182     1012      963        1     3483     3499     1451     3481
        1        1        1        1        0        0        0        0        8        0       11     1182        1      985     1113     3481     1452     3931     3482
        1        1        1        1        0        0        0        0        8        0       12      971      998      970        2     3474     3473     1454     1453
! ... 1298 like lines cut
!Material Id = {83998877-719D-438F-9317-30FFBC2065C8}
/wb,elem,end               !  done creating elements
/com,*********** Send User Defined Coordinate System(s) ***********
csys,0
toffst,273.15,  ! Temperature offset from absolute zero
/com,*********** Set Reference Temperature ***********
tref,22.
/wb,mat,start              !  starting to send materials
/com,*********** Send Materials ***********
MP,EX,1,205000,	! tonne s^-2 mm^-1
MP,NUXY,1,0.3,

/wb,mat,end                !  done sending materials
/com,*********** Send Sheet Properties ***********
!************************* Model Summary ********************
!Surface Body,	SB450,	matid,	1
!************************* End Model Summary ********************
! get the diagonal of the bounding box. Needed later for other things
*get,_xmin,node,,mnloc,x
*get,_ymin,node,,mnloc,y
*get,_zmin,node,,mnloc,z
*get,_xmax,node,,mxloc,x
*get,_ymax,node,,mxloc,y
*get,_zmax,node,,mxloc,z
_ASMDIAG=(_xmax-_xmin)*(_xmax-_xmin)+(_ymax-_ymin)*(_ymax-_ymin)+(_zmax-_zmin)*(_zmax-_zmin)
_ASMDIAG=SQRT(_ASMDIAG)
/wb,contact,start          !  starting to send contact
/wb,contact,end            !  done creating contacts
/golist
/wb,load,start             !  starting to send loads
/com,******* Constant Zero Displacement X *******
CMBLOCK,_DISPZEROUX,NODE,       21
(8i10)
      1380      1381      1382      1383      1384      1385      1386      1387
      1388      1389      1445      4141      4142      4143      4144      4145
      4146      4147      4148      4150      4205
cmsel,s,_DISPZEROUX
d,all,ux,0
nsel,all
/com,******* Constant Zero Displacement Y *******
CMBLOCK,_DISPZEROUY,NODE,       21
(8i10)
      1273      1274      1275      1276      1277      1278      1279      1280
      1281      1282      1327      4046      4047      4048      4049      4050
      4051      4052      4053      4055      4098
cmsel,s,_DISPZEROUY
d,all,uy,0
nsel,all
/com,*********** Define Pressure Using Surface Effect Elements ***********
et,2,153
keyop,2,3,10        ! get plane stress option and thickness from underlying element
eblock,10,,,131
(15i9)
     1318        2        2        2        0     1216     1185     3950
     1319        2        2        2        0     1185     1378     3949
     1320        2        2        2        0     1379     1184     3948
     1321        2        2        2        0     1184     1216     3947
     1322        2        2        2        0     1378     1183     3945
     1323        2        2        2        0     1214     1377     3989
     1324        2        2        2        0     1377     1376     4140
     1325        2        2        2        0     1376     1375     4139
     1326        2        2        2        0     1375     1374     4138
     1327        2        2        2        0     1374     1373     4137
     1328        2        2        2        0     1373     1372     4136
     1329        2        2        2        0     1372     1371     4135
     1330        2        2        2        0     1371     1370     4134
     1331        2        2        2        0     1370     1369     4133
     1332        2        2        2        0     1369     1368     4132
     1333        2        2        2        0     1368     1367     4131
     1334        2        2        2        0     1367     1366     4130
     1335        2        2        2        0     1366     1365     4129
     1336        2        2        2        0     1365     1364     4128
     1337        2        2        2        0     1364     1363     4127
! ... 112 like lines cut
esel,s,type,,2
keyop,2,7,0                ! Use deformed area for application of load
esel,all
esel,all
/gst,on,on
fini
*get,_numnode,node,0,count
*get,_numelem,elem,0,count
*get, _MAXELEMNUM, elem, 0, NUM, MAX
*get, _MAXNODENUM, node, 0, NUM, MAX
*get, _MAXELEMTYPE, etyp, 0, NUM, MAX
*get, _MAXREALCONST, real, 0, NUM, MAX
/go
/wb,load,end               !  done creating loads
/com,--- Number of total nodes = %_numnode%
/com,--- Number of contact elements = 131
/com,--- Number of spring elements = 0
/com,--- Number of bearing elements = 0
/com,--- Number of solid elements = 1317
/com,--- Number of condensed parts = 0
/com,--- Number of total elements = %_numelem%
*get,_wallbsol,active,,time,wall
/com,****************************************************************************
/com,*************************    SOLUTION       ********************************
/com,****************************************************************************
/solu
antype,0                   ! static analysis
_thickRatio=  0     ! Ratio of thick parts in the model
eqsl,sparse,,,,,1
cntr,print,1               ! print out contact info and also make no initial contact an error
dmpoption,emat,no             ! Don't combine emat file for DANSYS
dmpoption,esav,no             ! Don't combine esav file for DANSYS
nldiag,cont,iter           ! print out contact info each equilibrium iteration
rescontrol,,none                 ! Do not keep any restart files
/com,****************************************************
/com,******************* SOLVE FOR LS 1 OF 1 ****************
esel,s,type,,2
nsle
sf,all,pres,10.
nsel,all
esel,all
esel,all
/nopr
/gopr
nsub,1,1,1
time,1.
outres,erase
outres,all,none
outres,nsol,all,
outres,rsol,all
outres,eangl,all
outres,etmp,all
outres,veng,all
outres,strs,all,
outres,epel,all,
outres,eppl,all,
outres,cont,all,
! *********** WB SOLVE COMMAND ***********
! check interactive state
*get,ANSINTER_,active,,int
*if,ANSINTER_,ne,0,then
/eof
*endif
solve
/com *************** Write FE CONNECTORS ********* 
CEWRITE,file,ce,,INTE
/com,****************************************************
/com,*************** FINISHED SOLVE FOR LS 1 *************
*get,_wallasol,active,,time,wall
/nopr
*get,_numnode,node,0,count
*get,_numelem,elem,0,count
*get, _MAXELEMNUM, elem, 0, NUM, MAX
*get, _MAXNODENUM, node, 0, NUM, MAX,,,INTERNAL
*get, _MAXELEMTYPE, etyp, 0, NUM, MAX
*get, _MAXREALCONST, real, 0, NUM, MAX
/gopr
/post1
xmlo,ENCODING,ISO-8859-1
xmlo,parm
/xml,parm,xml
fini
/gopr
*get,_walldone,active,,time,wall
_preptime=(_wallbsol-_wallstrt)*3600
_solvtime=(_wallasol-_wallbsol)*3600
_posttime=(_walldone-_wallasol)*3600
_totaltim=(_walldone-_wallstrt)*3600
*get,_dlbratio,active,0,solu,dlbr
*get,_combtime,active,0,solu,comb
/com,--- Total number of nodes = %_numnode%
/com,--- Total number of elements = %_numelem%
/com,--- Element load balance ratio = %_dlbratio%
/com,--- Time to combine distributed files = %_combtime%
/wb,file,end               ! done with WB generated input
