/batch
/config,noeldb,1     ! force off writing results to database
*get,_wallstrt,active,,time,wall
! ANSYS input file written by Workbench version 2020 R2
! File used for geometry attach: C:\Users\shohei\Downloads\fem-izumi\5-3-8\fitting pin_files\dp0\SYS\DM\SYS.agdb
/title,fitting pin--Static Structural (A5)
*DIM,_wb_ProjectScratch_dir,string,248
_wb_ProjectScratch_dir(1) = 'C:\Users\shohei\Downloads\fem-izumi\5-3-8\_ProjectScratch\Scr9B0A\'
*DIM,_wb_SolverFiles_dir,string,248
_wb_SolverFiles_dir(1) = 'C:\Users\shohei\Downloads\fem-izumi\5-3-8\fitting pin_files\dp0\SYS\MECH\'
*DIM,_wb_userfiles_dir,string,248
_wb_userfiles_dir(1) = 'C:\Users\shohei\Downloads\fem-izumi\5-3-8\fitting pin_files\user_files\'
/com,--- Data in consistent NMM units. See Solving Units in the help system for more information.
/units,MPA
/nopr
/wb,file,start              !  signify a WB generated input file
/prep7
! Turn off shape checking because checks already performed inside WB mesher.
! See help system for more information.
SHPP,OFF,,NOWARN
/nolist
etcon,set             ! allow ANSYS to choose best KEYOP's for 180x elements
/com,*********** Nodes for the whole assembly ***********
nblock,3,,2906
(1i9,3e20.9e3)
        1     1.235120401E+01     4.290039724E+01     0.000000000E+00
        2     1.161988571E+01     5.142910889E+01     0.000000000E+00
        3     4.999522574E+00     4.870840378E+01     0.000000000E+00
        4     8.126900699E+00     4.882669671E+01     0.000000000E+00
        5     1.193952535E+01     6.242144810E+01     0.000000000E+00
        6     8.345965228E+00     4.743973331E+01     0.000000000E+00
        7     1.012774395E+01     5.949585737E+01     0.000000000E+00
        8     9.690671817E+00     4.824529342E+01     0.000000000E+00
        9     1.222711494E+01     6.092783582E+01     0.000000000E+00
       10     8.457160675E+00     3.924262725E+01     0.000000000E+00
       11     8.585095898E+00     3.503170109E+01     0.000000000E+00
       12     8.597152307E+00     3.291840980E+01     0.000000000E+00
       13     8.598735109E+00     3.082913870E+01     0.000000000E+00
       14     8.594624843E+00     2.668452870E+01     0.000000000E+00
       15     8.619787516E+00     2.255634695E+01     0.000000000E+00
       16     8.631171175E+00     2.049260711E+01     0.000000000E+00
       17     8.626393861E+00     1.842703816E+01     0.000000000E+00
       18     8.631762287E+00     1.427220277E+01     0.000000000E+00
       19     8.647513991E+00     1.221452294E+01     0.000000000E+00
       20     8.642387501E+00     1.015775201E+01     0.000000000E+00
! ... 2623 like lines cut
/wb,elem,start            !  set before creation of elements
/com,*********** Elements for Body 1 "Surface Body" ***********
et,1,183
keyo,1,3,3
eblock,19,solid,,821
(19i9)
        1        1        1        1        0        0        0        0        8        0      291       38      211      205      205     1098     1360      205     1097
        1        1        1        1        0        0        0        0        8        0        1      236      298      481      282     1439     1472     1468     1372
        1        1        1        1        0        0        0        0        8        0        2        5       45      282      207      997     1371     1381      998
        1        1        1        1        0        0        0        0        8        0        3       45      285      236      282     1373     1374     1372     1371
        1        1        1        1        0        0        0        0        8        0        4      486      293      236      285     1444      912     1374     1443
        1        1        1        1        0        0        0        0        8        0        5      236      293      487      298      912     1441     1440     1439
        1        1        1        1        0        0        0        0        8        0        6      252      167      242      284      913     1376     1378     1377
        1        1        1        1        0        0        0        0        8        0        7      252      266      136      167     1410     1408     1288      913
        1        1        1        1        0        0        0        0        8        0        8      255      194      239      278     1393      914     1395     1394
        1        1        1        1        0        0        0        0        8        0        9      239      194       78      279      914     1203     1390     1391
        1        1        1        1        0        0        0        0        8        0       10      244      219      248      277      915     1396     1398     1397
        1        1        1        1        0        0        0        0        8        0       11      244      274      124      219     1404     1402     1280      915
        1        1        1        1        0        0        0        0        8        0       12      273      245      206      125     1406      916     1282     1405
        1        1        1        1        0        0        0        0        8        0       13      206      245      276      251      916     1401     1400     1399
        1        1        1        1        0        0        0        0        8        0       14      207      282      482      296     1381     1462     1464     1463
        1        1        1        1        0        0        0        0        8        0       15      296      483       46      207     1460      917     1117     1463
        1        1        1        1        0        0        0        0        8        0       16      483      283        7       46     1459     1002     1005      917
        1        1        1        1        0        0        0        0        8        0       17      133      298      487      347     1471     1440     1442     1700
        1        1        1        1        0        0        0        0        8        0       18        2      194      237      168      920     1175     1174      921
        1        1        1        1        0        0        0        0        8        0       19      194      255      286      237     1393     1370     1369     1175
! ... 802 like lines cut
!Material Id = {531839A3-06FF-4559-A940-62062300A9C5}
/wb,elem,end               !  done creating elements
/com,*********** Send User Defined Coordinate System(s) ***********
csys,0
toffst,273.15,  ! Temperature offset from absolute zero
/com,*********** Set Reference Temperature ***********
tref,22.
/wb,mat,start              !  starting to send materials
/com,*********** Send Materials ***********
MP,EX,1,205000,	! tonne s^-2 mm^-1
MP,NUXY,1,0.28,

/wb,mat,end                !  done sending materials
/com,*********** Send Sheet Properties ***********
r,1,10.

!************************* Model Summary ********************
!Surface Body,	S45C,	matid,	1
!************************* End Model Summary ********************
! get the diagonal of the bounding box. Needed later for other things
*get,_xmin,node,,mnloc,x
*get,_ymin,node,,mnloc,y
*get,_zmin,node,,mnloc,z
*get,_xmax,node,,mxloc,x
*get,_ymax,node,,mxloc,y
*get,_zmax,node,,mxloc,z
_ASMDIAG=(_xmax-_xmin)*(_xmax-_xmin)+(_ymax-_ymin)*(_ymax-_ymin)+(_zmax-_zmin)*(_zmax-_zmin)
_ASMDIAG=SQRT(_ASMDIAG)
/wb,contact,start          !  starting to send contact
/wb,contact,end            !  done creating contacts
/com,*********** Send Named Selection as Node Component ***********
CMBLOCK,UPPER_SIDE,NODE,       49
(8i10)
       723       725       727       728       729       730       731       732
       734       736       739       740       787       788       789       790
       792       795       905       906       907       908       909       910
       911      2517      2518      2523      2524      2525      2526      2527
      2528      2529      2530      2531      2532      2533      2534      2535
      2536      2537      2538      2539      2540      2543      2544      2545
      2546
/golist
/wb,load,start             !  starting to send loads
/com,********* Frictionless Supports X *********
CMBLOCK,_FRICSUX,NODE,       94
(8i10)
       724       726       738       765       767       769       778       783
       785       791       838       839       840       841       842       843
       844       845       846       847       848       849       850       851
       852       853       854       855       856       857       858       859
       860       861       862       863       864       865       866       867
       873       874       875       876       877       878       885       910
      2505      2506      2511      2512      2515      2516      2519      2520
      2521      2522      2541      2542      2548      2551      2585      2586
      2587      2588      2589      2590      2591      2592      2593      2594
      2595      2596      2597      2598      2599      2600      2601      2602
      2603      2604      2605      2606      2607      2608      2609      2610
      2611      2613      2614      2615      2616      2622
cmsel,s,_FRICSUX
d,all,ux,0
nsel,all
/com,******* Constant Zero Displacement Y *******
CMBLOCK,_DISPZEROUY,NODE,       15
(8i10)
       831       832       833       834       835       836       837       867
      2578      2579      2580      2581      2582      2584      2612
cmsel,s,_DISPZEROUY
d,all,uy,0
nsel,all
/com,********** Rotational Supports Z **********
CMBLOCK,_ROTSUZ ,NODE,       94
(8i10)
       724       726       738       765       767       769       778       783
       785       791       838       839       840       841       842       843
       844       845       846       847       848       849       850       851
       852       853       854       855       856       857       858       859
       860       861       862       863       864       865       866       867
       873       874       875       876       877       878       885       910
      2505      2506      2511      2512      2515      2516      2519      2520
      2521      2522      2541      2542      2548      2551      2585      2586
      2587      2588      2589      2590      2591      2592      2593      2594
      2595      2596      2597      2598      2599      2600      2601      2602
      2603      2604      2605      2606      2607      2608      2609      2610
      2611      2613      2614      2615      2616      2622
cmsel,s,_ROTSUZ
d,all,rotz,0
nsel,all
/com,*********** Define Pressure Using Surface Effect Elements ***********
et,2,153
keyop,2,3,10        ! get plane stress option and thickness from underlying element
eblock,10,,,24
(15i9)
      822        2        2        2        0      790      740     2546
      823        2        2        2        0      740      908     2545
      824        2        2        2        0      909      739     2544
      825        2        2        2        0      739      790     2543
      826        2        2        2        0      911      736     2540
      827        2        2        2        0      736      795     2539
      828        2        2        2        0      795      734     2538
      829        2        2        2        0      734      909     2537
      830        2        2        2        0      789      732     2536
      831        2        2        2        0      732      907     2535
      832        2        2        2        0      908      731     2534
      833        2        2        2        0      731      789     2533
      834        2        2        2        0      788      730     2532
      835        2        2        2        0      730      906     2531
      836        2        2        2        0      907      729     2530
      837        2        2        2        0      729      788     2529
      838        2        2        2        0      787      728     2528
      839        2        2        2        0      728      905     2527
      840        2        2        2        0      906      727     2526
      841        2        2        2        0      727      787     2525
! ... 5 like lines cut
esel,s,type,,2
keyop,2,7,0                ! Use deformed area for application of load
esel,all

*DIM,_loadvari50,TABLE,2,2,1,X,TIME
! Time Values
_loadvari50(0,1,1) = 0.
_loadvari50(0,2,1) = 1.
! X values
_loadvari50(1,0,1) = 0.
_loadvari50(2,0,1) = 15.
! Load values
_loadvari50(1,1,1) = 0.
_loadvari50(1,2,1) = 1.
_loadvari50(2,1,1) = 0.
_loadvari50(2,2,1) = 0.

esel,all
/gst,on,on
fini
*get,_numnode,node,0,count
*get,_numelem,elem,0,count
*get, _MAXELEMNUM, elem, 0, NUM, MAX
*get, _MAXNODENUM, node, 0, NUM, MAX
*get, _MAXELEMTYPE, etyp, 0, NUM, MAX
*get, _MAXREALCONST, real, 0, NUM, MAX
/go
/wb,load,end               !  done creating loads
/com,--- Number of total nodes = %_numnode%
/com,--- Number of contact elements = 24
/com,--- Number of spring elements = 0
/com,--- Number of bearing elements = 0
/com,--- Number of solid elements = 821
/com,--- Number of condensed parts = 0
/com,--- Number of total elements = %_numelem%
*get,_wallbsol,active,,time,wall
/com,****************************************************************************
/com,*************************    SOLUTION       ********************************
/com,****************************************************************************
/solu
antype,0                   ! static analysis
_thickRatio=  0     ! Ratio of thick parts in the model
eqsl,sparse,,,,,1
cntr,print,1               ! print out contact info and also make no initial contact an error
dmpoption,emat,no             ! Don't combine emat file for DANSYS
dmpoption,esav,no             ! Don't combine esav file for DANSYS
nldiag,cont,iter           ! print out contact info each equilibrium iteration
rescontrol,,none                 ! Do not keep any restart files
/com,****************************************************
/com,******************* SOLVE FOR LS 1 OF 1 ****************
esel,s,type,,2
nsle
sf,all,pres,%_loadvari50%
nsel,all
esel,all
esel,all
/nopr
/gopr
nsub,1,1,1
time,1.
outres,erase
outres,all,none
outres,nsol,all,
outres,rsol,all
outres,eangl,all
outres,etmp,all
outres,veng,all
outres,strs,all,
outres,epel,all,
outres,eppl,all,
outres,cont,all,
! *********** WB SOLVE COMMAND ***********
! check interactive state
*get,ANSINTER_,active,,int
*if,ANSINTER_,ne,0,then
/eof
*endif
solve
/com *************** Write FE CONNECTORS ********* 
CEWRITE,file,ce,,INTE
/com,****************************************************
/com,*************** FINISHED SOLVE FOR LS 1 *************
*get,_wallasol,active,,time,wall
/nopr
*get,_numnode,node,0,count
*get,_numelem,elem,0,count
*get, _MAXELEMNUM, elem, 0, NUM, MAX
*get, _MAXNODENUM, node, 0, NUM, MAX,,,INTERNAL
*get, _MAXELEMTYPE, etyp, 0, NUM, MAX
*get, _MAXREALCONST, real, 0, NUM, MAX
/gopr
/post1
xmlo,ENCODING,ISO-8859-1
xmlo,parm
/xml,parm,xml
fini
/gopr
*get,_walldone,active,,time,wall
_preptime=(_wallbsol-_wallstrt)*3600
_solvtime=(_wallasol-_wallbsol)*3600
_posttime=(_walldone-_wallasol)*3600
_totaltim=(_walldone-_wallstrt)*3600
*get,_dlbratio,active,0,solu,dlbr
*get,_combtime,active,0,solu,comb
/com,--- Total number of nodes = %_numnode%
/com,--- Total number of elements = %_numelem%
/com,--- Element load balance ratio = %_dlbratio%
/com,--- Time to combine distributed files = %_combtime%
/wb,file,end               ! done with WB generated input
