/batch
/config,noeldb,1     ! force off writing results to database
*get,_wallstrt,active,,time,wall
! ANSYS input file written by Workbench version 2020 R2
! File used for geometry attach: C:\Users\shohei\Downloads\fem-izumi\5-3-10\paper cutter knife_files\dp0\SYS-1\DM\SYS-1.agdb
/title,paper cutter knife--Static Structural (B5)
*DIM,_wb_ProjectScratch_dir,string,248
_wb_ProjectScratch_dir(1) = 'C:\Users\shohei\Downloads\fem-izumi\5-3-10\_ProjectScratch\Scr284A\'
*DIM,_wb_SolverFiles_dir,string,248
_wb_SolverFiles_dir(1) = 'C:\Users\shohei\Downloads\fem-izumi\5-3-10\paper cutter knife_files\dp0\SYS-1\MECH\'
*DIM,_wb_userfiles_dir,string,248
_wb_userfiles_dir(1) = 'C:\Users\shohei\Downloads\fem-izumi\5-3-10\paper cutter knife_files\user_files\'
/com,--- Data in consistent NMM units. See Solving Units in the help system for more information.
/units,MPA
/nopr
/wb,file,start              !  signify a WB generated input file
/prep7
! Turn off shape checking because checks already performed inside WB mesher.
! See help system for more information.
SHPP,OFF,,NOWARN
/nolist
etcon,set             ! allow ANSYS to choose best KEYOP's for 180x elements
/com,*********** Nodes for the whole assembly ***********
nblock,3,,23282
(1i9,3e20.9e3)
        1    -0.000000000E+00     3.000000000E+01     0.000000000E+00
        2    -0.000000000E+00     1.500000000E+01     0.000000000E+00
        3     1.500000000E+01     1.500000000E+01     0.000000000E+00
        4     1.500000000E+01     0.000000000E+00     0.000000000E+00
        5     1.750000000E+01     0.000000000E+00     0.000000000E+00
        6     3.000000000E+01     0.000000000E+00     0.000000000E+00
        7     3.000000000E+01     3.000000000E+01     0.000000000E+00
        8     0.000000000E+00     0.000000000E+00     0.000000000E+00
        9     1.250000000E+01     0.000000000E+00     0.000000000E+00
       10     3.946286357E-01     1.460526316E+01     0.000000000E+00
       11     7.892572715E-01     1.460526316E+01     0.000000000E+00
       12     1.183885907E+00     1.460526316E+01     0.000000000E+00
       13     1.578514543E+00     1.460526316E+01     0.000000000E+00
       14     1.973143179E+00     1.460526316E+01     0.000000000E+00
       15     2.367771814E+00     1.460526316E+01     0.000000000E+00
       16     2.762400450E+00     1.460526316E+01     0.000000000E+00
       17     3.157029086E+00     1.460526316E+01     0.000000000E+00
       18     3.551657722E+00     1.460526316E+01     0.000000000E+00
       19     3.946286357E+00     1.460526316E+01     0.000000000E+00
       20     4.340914993E+00     1.460526316E+01     0.000000000E+00
! ... 21147 like lines cut
/wb,elem,start            !  set before creation of elements
/com,*********** Elements for Body 1 "Surface Body" ***********
et,1,183
keyo,1,3,3
eblock,19,solid,,6995
(19i9)
        1        1        1        1        0        0        0        0        8        0     5626     6674     6545     6673     6673    20609    20608     6673    20848
        1        1        1        1        0        0        0        0        8        0     5627     7036     6372     6500     6500    20149    20147     6500    20485
        1        1        1        1        0        0        0        0        8        0     5628     6454     6315     6831     6831    20010    20011     6831    20361
        1        1        1        1        0        0        0        0        8        0     5629     6374     6258     6971     6971    19846    19848     6971    20154
        1        1        1        1        0        0        0        0        8        0     5630     6333     6218     6330     6330    19752    19751     6330    20049
        1        1        1        1        0        0        0        0        8        0     5631     6331     6216     6328     6328    19747    19746     6328    20045
        1        1        1        1        0        0        0        0        8        0     5632     6313     6197     7079     7079    19701    19703     7079    20004
        1        1        1        1        0        0        0        0        8        0     5633     6310     6195     6311     6311    19694    19695     6311    19995
        1        1        1        1        0        0        0        0        8        0     5634     6308     6194     6309     6309    19692    19693     6309    19990
        1        1        1        1        0        0        0        0        8        0     5635     6307     6193     7004     7004    19688    19690     7004    19989
        1        1        1        1        0        0        0        0        8        0     5636     6910     6306     6957     6957    19984    19986     6957    21107
        1        1        1        1        0        0        0        0        8        0     5637     6299     7015     6824     6824    19964    21042     6824    19962
        1        1        1        1        0        0        0        0        8        0     5638     6295     6187     6987     6987    19669    19671     6987    19950
        1        1        1        1        0        0        0        0        8        0     5639     6293     6292     6960     6960    19940    19942     6960    19946
        1        1        1        1        0        0        0        0        8        0     5640     6291     6876     7071     7071    19937    21082     7071    19939
        1        1        1        1        0        0        0        0        8        0     5641     6989     6289     7085     7085    19931    19932     7085    21156
        1        1        1        1        0        0        0        0        8        0     5642     6287     6182     6288     6288    19656    19657     6288    19925
        1        1        1        1        0        0        0        0        8        0     5643     6286     6181     7037     7037    19652    19654     7037    19924
        1        1        1        1        0        0        0        0        8        0     5644     6285     6879     6930     6930    19919    21084     6930    19921
        1        1        1        1        0        0        0        0        8        0     5645     6284     6180     6924     6924    19647    19649     6924    19917
! ... 6976 like lines cut
!Material Id = {4BECF68D-1C05-441E-B464-0A4F1631B59B}
/wb,elem,end               !  done creating elements
/com,*********** Send User Defined Coordinate System(s) ***********
csys,0
toffst,273.15,  ! Temperature offset from absolute zero
/com,*********** Set Reference Temperature ***********
tref,22.
/wb,mat,start              !  starting to send materials
/com,*********** Send Materials ***********
MP,EX,1,20000,	! tonne s^-2 mm^-1
MP,NUXY,1,0.3,

/wb,mat,end                !  done sending materials
/com,*********** Send Sheet Properties ***********
r,1,0.2

!************************* Model Summary ********************
!Surface Body,	Paper,	matid,	1
!************************* End Model Summary ********************
! get the diagonal of the bounding box. Needed later for other things
*get,_xmin,node,,mnloc,x
*get,_ymin,node,,mnloc,y
*get,_zmin,node,,mnloc,z
*get,_xmax,node,,mxloc,x
*get,_ymax,node,,mxloc,y
*get,_zmax,node,,mxloc,z
_ASMDIAG=(_xmax-_xmin)*(_xmax-_xmin)+(_ymax-_ymin)*(_ymax-_ymin)+(_zmax-_zmin)*(_zmax-_zmin)
_ASMDIAG=SQRT(_ASMDIAG)
/wb,contact,start          !  starting to send contact
/wb,contact,end            !  done creating contacts
/golist
/wb,load,start             !  starting to send loads
/com,********* Frictionless Supports X *********
CMBLOCK,_FRICSUX,NODE,      203
(8i10)
         1         2         8      1415      1416      1417      1418      1419
      1420      1421      1422      1423      1424      1425      1426      1427
      1428      1429      1430      1431      1432      1433      1434      1435
      1436      1437      1438      1439      1440      1441      1442      1443
      1444      1445      1446      1447      1448      1449      1450      1451
      5741      5742      5743      5744      5745      5746      5747      5748
      5749      5750      5751      5752      5753      5754      5755      5756
      5757      5758      5759      5760      5761      5762      5763      5764
      5765      5766      5767      5768      5769      5770      5771      5772
      5773      5774      5775      5776      5777      5778      5779      5780
      5781      5782      5783      5784      5785      5786      5787      5788
      5789      5790      5791      5792      5793      5794      5795      5796
      5797      5798      5799      5800      5801      5802      7088      7089
      7090      7092      7111      9960      9961      9962      9963      9964
      9965      9966      9967      9968      9969      9970      9971      9972
      9973      9974      9975      9976      9977      9978      9979      9980
      9981      9982      9983      9984      9985      9986      9987      9988
      9989      9990      9991      9992      9993      9994      9995     18604
     18605     18606     18607     18608     18609     18610     18611     18612
     18613     18614     18615     18616     18617     18618     18619     18620
! ... 6 like lines cut
cmsel,s,_FRICSUX
d,all,ux,0
nsel,all
/com,********* Frictionless Supports Y *********
CMBLOCK,_FRICSUY,NODE,      119
(8i10)
         4         5         6      5706      5707      5708      5709      5710
      5711      5712      5713      5714      5715      5716      5717      5718
      5719      5720      5721      5722      5723      5724      5725      5726
      5727      5728      5729      5730      5731      5732      5733      5734
      5735      5736      5737      5738      5739      5740      5803      5804
      5805      5806      5807      5808      5809      5810      5811      5812
      5813      5814      5815      5816      5817      5818      5819      5820
      5821      5822      5823      5824      7099      7101      7102      7104
      7105     18571     18572     18573     18574     18575     18576     18577
     18578     18579     18580     18581     18582     18583     18584     18585
     18586     18587     18588     18589     18590     18591     18592     18593
     18594     18595     18596     18597     18598     18599     18600     18601
     18602     18603     18690     18692     18694     18696     18698     18700
     18702     18704     18706     18708     18710     18712     18714     18716
     18718     18720     18722     18724     18726     18728     18730
cmsel,s,_FRICSUY
d,all,uy,0
nsel,all
/com,********** Rotational Supports Z **********
CMBLOCK,_ROTSUZ ,NODE,      322
(8i10)
         1         2         4         5         6         8      1415      1416
      1417      1418      1419      1420      1421      1422      1423      1424
      1425      1426      1427      1428      1429      1430      1431      1432
      1433      1434      1435      1436      1437      1438      1439      1440
      1441      1442      1443      1444      1445      1446      1447      1448
      1449      1450      1451      5706      5707      5708      5709      5710
      5711      5712      5713      5714      5715      5716      5717      5718
      5719      5720      5721      5722      5723      5724      5725      5726
      5727      5728      5729      5730      5731      5732      5733      5734
      5735      5736      5737      5738      5739      5740      5741      5742
      5743      5744      5745      5746      5747      5748      5749      5750
      5751      5752      5753      5754      5755      5756      5757      5758
      5759      5760      5761      5762      5763      5764      5765      5766
      5767      5768      5769      5770      5771      5772      5773      5774
      5775      5776      5777      5778      5779      5780      5781      5782
      5783      5784      5785      5786      5787      5788      5789      5790
      5791      5792      5793      5794      5795      5796      5797      5798
      5799      5800      5801      5802      5803      5804      5805      5806
      5807      5808      5809      5810      5811      5812      5813      5814
      5815      5816      5817      5818      5819      5820      5821      5822
! ... 21 like lines cut
cmsel,s,_ROTSUZ
d,all,rotz,0
nsel,all
/com,*********** Define Pressure Vector Using Surface Effect Elements ***********
local,12,0,0.,0.,0.,0.,0.,0.
csys,0
et,2,153
keyop,2,3,10        ! get plane stress option and thickness from underlying element
eblock,10,,,12
(15i9)
     6996        2        2        2       12     5777     5851    18640
     6997        2        2        2       12     5851     5850    18782
     6998        2        2        2       12     5850     5849    18780
     6999        2        2        2       12     5849     5848    18778
     7000        2        2        2       12     5848     5847    18776
     7001        2        2        2       12     5847     5846    18774
     7002        2        2        2       12     5846     5845    18772
     7003        2        2        2       12     5845     5844    18770
     7004        2        2        2       12     5844     5843    18768
     7005        2        2        2       12     5843     5842    18766
     7006        2        2        2       12     5842     5841    18764
     7007        2        2        2       12     5841     5825    18734
-1
esel,s,type,,2
keyop,2,2,1                ! Apply load in local coordinate system
keyop,2,7,0                ! Use deformed area for application of load
keyop,2,11,2               ! Use real and not project area
esel,all
/gst,on,on
fini
*get,_numnode,node,0,count
*get,_numelem,elem,0,count
*get, _MAXELEMNUM, elem, 0, NUM, MAX
*get, _MAXNODENUM, node, 0, NUM, MAX
*get, _MAXELEMTYPE, etyp, 0, NUM, MAX
*get, _MAXREALCONST, real, 0, NUM, MAX
/go
/wb,load,end               !  done creating loads
/com,--- Number of total nodes = %_numnode%
/com,--- Number of contact elements = 12
/com,--- Number of spring elements = 0
/com,--- Number of bearing elements = 0
/com,--- Number of solid elements = 6995
/com,--- Number of condensed parts = 0
/com,--- Number of total elements = %_numelem%
*get,_wallbsol,active,,time,wall
/com,****************************************************************************
/com,*************************    SOLUTION       ********************************
/com,****************************************************************************
/solu
antype,0                   ! static analysis
_thickRatio=  0     ! Ratio of thick parts in the model
eqsl,sparse,,,,,1
cntr,print,1               ! print out contact info and also make no initial contact an error
dmpoption,emat,no             ! Don't combine emat file for DANSYS
dmpoption,esav,no             ! Don't combine esav file for DANSYS
nldiag,cont,iter           ! print out contact info each equilibrium iteration
rescontrol,,none                 ! Do not keep any restart files
/com,****************************************************
/com,******************* SOLVE FOR LS 1 OF 1 ****************
esel,s,type,,2
nsle
sfe,all,1,pres,1,0.
sfe,all,2,pres,1,20.
nsel,all
esel,all
/nopr
/gopr
nsub,1,1,1
time,1.
outres,erase
outres,all,none
outres,nsol,all,
outres,rsol,all
outres,eangl,all
outres,etmp,all
outres,veng,all
outres,strs,all,
outres,epel,all,
outres,eppl,all,
outres,cont,all,
! *********** WB SOLVE COMMAND ***********
! check interactive state
*get,ANSINTER_,active,,int
*if,ANSINTER_,ne,0,then
/eof
*endif
solve
/com *************** Write FE CONNECTORS ********* 
CEWRITE,file,ce,,INTE
/com,****************************************************
/com,*************** FINISHED SOLVE FOR LS 1 *************
*get,_wallasol,active,,time,wall
/nopr
*get,_numnode,node,0,count
*get,_numelem,elem,0,count
*get, _MAXELEMNUM, elem, 0, NUM, MAX
*get, _MAXNODENUM, node, 0, NUM, MAX,,,INTERNAL
*get, _MAXELEMTYPE, etyp, 0, NUM, MAX
*get, _MAXREALCONST, real, 0, NUM, MAX
/gopr
/post1
xmlo,ENCODING,ISO-8859-1
xmlo,parm
/xml,parm,xml
fini
/gopr
*get,_walldone,active,,time,wall
_preptime=(_wallbsol-_wallstrt)*3600
_solvtime=(_wallasol-_wallbsol)*3600
_posttime=(_walldone-_wallasol)*3600
_totaltim=(_walldone-_wallstrt)*3600
*get,_dlbratio,active,0,solu,dlbr
*get,_combtime,active,0,solu,comb
/com,--- Total number of nodes = %_numnode%
/com,--- Total number of elements = %_numelem%
/com,--- Element load balance ratio = %_dlbratio%
/com,--- Time to combine distributed files = %_combtime%
/wb,file,end               ! done with WB generated input
