/batch
/config,noeldb,1     ! force off writing results to database
*get,_wallstrt,active,,time,wall
! ANSYS input file written by Workbench version 2020 R2
! File used for geometry attach: C:\Users\shohei\Downloads\fem-izumi\5-4\simple tension_files\dp0\SYS\DM\SYS.agdb
/title,simple tension--Static Structural (A5)
*DIM,_wb_ProjectScratch_dir,string,248
_wb_ProjectScratch_dir(1) = 'C:\Users\shohei\Downloads\fem-izumi\5-4\_ProjectScratch\ScrBA0B\'
*DIM,_wb_SolverFiles_dir,string,248
_wb_SolverFiles_dir(1) = 'C:\Users\shohei\Downloads\fem-izumi\5-4\simple tension_files\dp0\SYS\MECH\'
*DIM,_wb_userfiles_dir,string,248
_wb_userfiles_dir(1) = 'C:\Users\shohei\Downloads\fem-izumi\5-4\simple tension_files\user_files\'
/com,--- Data in consistent NMM units. See Solving Units in the help system for more information.
/units,MPA
/nopr
/wb,file,start              !  signify a WB generated input file
/prep7
! Turn off shape checking because checks already performed inside WB mesher.
! See help system for more information.
SHPP,OFF,,NOWARN
/nolist
etcon,set             ! allow ANSYS to choose best KEYOP's for 180x elements
/com,*********** Nodes for the whole assembly ***********
nblock,3,,568
(1i9,3e20.9e3)
        1     2.500672095E+01     1.742427266E+01     0.000000000E+00
        2     1.878226697E+01     2.301232299E+01     0.000000000E+00
        3     2.500034228E+01     3.079285892E+01     0.000000000E+00
        4     3.124679845E+01     1.752021660E+01     0.000000000E+00
        5     1.877584081E+01     1.750283028E+01     0.000000000E+00
        6     1.876513031E+01     3.157249942E+01     0.000000000E+00
        7     3.123496698E+01     3.157370870E+01     0.000000000E+00
        8     1.246327280E+01     1.750504300E+01     0.000000000E+00
        9     1.875000000E+01     3.749999963E+01     0.000000000E+00
       10     1.247547553E+01     2.240182633E+01     0.000000000E+00
       11     3.124999978E+01     3.749999967E+01     0.000000000E+00
       12     3.754803041E+01     2.250027711E+01     0.000000000E+00
       13     3.756338705E+01     1.753649838E+01     0.000000000E+00
       14     1.245574757E+01     1.208585049E+01     0.000000000E+00
       15     1.250126078E+01     3.746206710E+01     0.000000000E+00
       16     3.749999967E+01     3.750000000E+01     0.000000000E+00
       17     3.750000022E+01     6.250000207E+00     0.000000000E+00
       18     3.125000022E+01     6.250000194E+00     0.000000000E+00
       19     2.500000022E+01     6.250000166E+00     0.000000000E+00
       20     1.875000022E+01     6.250000111E+00     0.000000000E+00
! ... 498 like lines cut
/wb,elem,start            !  set before creation of elements
/com,*********** Elements for Body 1 "Surface Body" ***********
et,1,183
keyo,1,3,3
eblock,19,solid,,156
(19i9)
        1        1        1        1        0        0        0        0        8        0        1      133       64        6       63      245      260      255      243
        1        1        1        1        0        0        0        0        8        0        2       67        3       64      133      249      257      245      244
        1        1        1        1        0        0        0        0        8        0        3      132       65        3       67      251      266      249      248
        1        1        1        1        0        0        0        0        8        0        4       71        7       65      132      273      263      251      250
        1        1        1        1        0        0        0        0        8        0        5       46       76      131       69      318      253      254      283
        1        1        1        1        0        0        0        0        8        0        6       69      131       63        6      254      256      255      280
        1        1        1        1        0        0        0        0        8        0        7       66       44       75      130      270      292      261      258
        1        1        1        1        0        0        0        0        8        0        8        3       66      130       64      267      258      259      257
        1        1        1        1        0        0        0        0        8        0        9       64      130       68        6      259      262      279      260
        1        1        1        1        0        0        0        0        8        0       10      130       75        9       68      261      295      276      262
        1        1        1        1        0        0        0        0        8        0       11       70       11       79      129      291      342      268      264
        1        1        1        1        0        0        0        0        8        0       12        7       70      129       65      288      264      265      263
        1        1        1        1        0        0        0        0        8        0       13       65      129       66        3      265      269      267      266
        1        1        1        1        0        0        0        0        8        0       14      129       79       44       66      268      345      270      269
        1        1        1        1        0        0        0        0        8        0       15      128       72        7       71      275      287      273      272
        1        1        1        1        0        0        0        0        8        0       16       80       45       72      128      323      284      275      274
        1        1        1        1        0        0        0        0        8        0       17       73       15       83      127      303      306      281      277
        1        1        1        1        0        0        0        0        8        0       18        9       73      127       68      300      277      278      276
        1        1        1        1        0        0        0        0        8        0       19       68      127       69        6      278      282      280      279
        1        1        1        1        0        0        0        0        8        0       20      127       83       46       69      281      309      283      282
! ... 137 like lines cut
!Material Id = {36E3561F-914D-40B9-A9F2-106B75256332}
/wb,elem,end               !  done creating elements
/com,*********** Send User Defined Coordinate System(s) ***********
csys,0
toffst,273.15,  ! Temperature offset from absolute zero
/com,*********** Set Reference Temperature ***********
tref,22.
/wb,mat,start              !  starting to send materials
/com,*********** Send Materials ***********
MP,EX,1,205000,	! tonne s^-2 mm^-1
MP,NUXY,1,0.3,

/wb,mat,end                !  done sending materials
/com,*********** Send Sheet Properties ***********
r,1,1.

!************************* Model Summary ********************
!Surface Body,	S45C,	matid,	1
!************************* End Model Summary ********************
! get the diagonal of the bounding box. Needed later for other things
*get,_xmin,node,,mnloc,x
*get,_ymin,node,,mnloc,y
*get,_zmin,node,,mnloc,z
*get,_xmax,node,,mxloc,x
*get,_ymax,node,,mxloc,y
*get,_zmax,node,,mxloc,z
_ASMDIAG=(_xmax-_xmin)*(_xmax-_xmin)+(_ymax-_ymin)*(_ymax-_ymin)+(_zmax-_zmin)*(_zmax-_zmin)
_ASMDIAG=SQRT(_ASMDIAG)
/wb,contact,start          !  starting to send contact
/wb,contact,end            !  done creating contacts
/golist
/wb,load,start             !  starting to send loads
/com,********* Frictionless Supports X *********
CMBLOCK,_FRICSUX,NODE,       25
(8i10)
       145       146       147       149       173       174       175       176
       177       178       179       180       181       493       494       496
       497       498       499       500       501       513       514       515
       517
cmsel,s,_FRICSUX
d,all,ux,0
nsel,all
/com,********* Frictionless Supports Y *********
CMBLOCK,_FRICSUY,NODE,       17
(8i10)
       165       166       167       168       169       170       171       172
       180       505       506       507       508       509       510       512
       516
cmsel,s,_FRICSUY
d,all,uy,0
nsel,all
/com,********** Rotational Supports Z **********
CMBLOCK,_ROTSUZ ,NODE,       41
(8i10)
       145       146       147       149       165       166       167       168
       169       170       171       172       173       174       175       176
       177       178       179       180       181       493       494       496
       497       498       499       500       501       505       506       507
       508       509       510       512       513       514       515       516
       517
cmsel,s,_ROTSUZ
d,all,rotz,0
nsel,all
/com,*********** Define Pressure Vector Without Surface Effect Elements "Pressure" ***********
local,12,0,0.,0.,0.,0.,0.,0.
csys,0
CMBLOCK,_CM32_2 ,ELEM,       14
(8i10)
        71        74        75        78        79        82        83        86
        87        90        91        94        95        98
CMBLOCK,_CM32_3 ,ELEM,        2
(8i10)
       101       102
/gst,on,on
fini
*get,_numnode,node,0,count
*get,_numelem,elem,0,count
*get, _MAXELEMNUM, elem, 0, NUM, MAX
*get, _MAXNODENUM, node, 0, NUM, MAX
*get, _MAXELEMTYPE, etyp, 0, NUM, MAX
*get, _MAXREALCONST, real, 0, NUM, MAX
/go
/wb,load,end               !  done creating loads
/com,--- Number of total nodes = %_numnode%
/com,--- Number of contact elements = 0
/com,--- Number of spring elements = 0
/com,--- Number of bearing elements = 0
/com,--- Number of solid elements = 156
/com,--- Number of condensed parts = 0
/com,--- Number of total elements = %_numelem%
*get,_wallbsol,active,,time,wall
/com,****************************************************************************
/com,*************************    SOLUTION       ********************************
/com,****************************************************************************
/solu
antype,0                   ! static analysis
_thickRatio=  0     ! Ratio of thick parts in the model
eqsl,sparse,,,,,1
cntr,print,1               ! print out contact info and also make no initial contact an error
dmpoption,emat,no             ! Don't combine emat file for DANSYS
dmpoption,esav,no             ! Don't combine esav file for DANSYS
nldiag,cont,iter           ! print out contact info each equilibrium iteration
rescontrol,,none                 ! Do not keep any restart files
/com,****************************************************
/com,******************* SOLVE FOR LS 1 OF 1 ****************
/com,*********** Set Pressure Vector Without Surface Effect Elements "Pressure" ***********
sfco,1,0,12,,,,,0		! set and send X component values
sfe,_CM32_2,2,pres,1,0.
sfe,_CM32_3,3,pres,1,0.
sfco,1,1,12,,,,,0		! set and send Y component values
sfe,_CM32_2,2,pres,1,1.
sfe,_CM32_3,3,pres,1,1.
nsel,all
esel,all
sfco,none		! resets the sfcontrol
/nopr
/gopr
nsub,1,1,1
time,1.
outres,erase
outres,all,none
outres,nsol,all,
outres,rsol,all
outres,eangl,all
outres,etmp,all
outres,veng,all
outres,strs,all,
outres,epel,all,
outres,eppl,all,
outres,cont,all,
! *********** WB SOLVE COMMAND ***********
! check interactive state
*get,ANSINTER_,active,,int
*if,ANSINTER_,ne,0,then
/eof
*endif
solve
/com *************** Write FE CONNECTORS ********* 
CEWRITE,file,ce,,INTE
/com,****************************************************
/com,*************** FINISHED SOLVE FOR LS 1 *************
*get,_wallasol,active,,time,wall
/nopr
*get,_numnode,node,0,count
*get,_numelem,elem,0,count
*get, _MAXELEMNUM, elem, 0, NUM, MAX
*get, _MAXNODENUM, node, 0, NUM, MAX,,,INTERNAL
*get, _MAXELEMTYPE, etyp, 0, NUM, MAX
*get, _MAXREALCONST, real, 0, NUM, MAX
/gopr
/post1
xmlo,ENCODING,ISO-8859-1
xmlo,parm
/xml,parm,xml
fini
/gopr
*get,_walldone,active,,time,wall
_preptime=(_wallbsol-_wallstrt)*3600
_solvtime=(_wallasol-_wallbsol)*3600
_posttime=(_walldone-_wallasol)*3600
_totaltim=(_walldone-_wallstrt)*3600
*get,_dlbratio,active,0,solu,dlbr
*get,_combtime,active,0,solu,comb
/com,--- Total number of nodes = %_numnode%
/com,--- Total number of elements = %_numelem%
/com,--- Element load balance ratio = %_dlbratio%
/com,--- Time to combine distributed files = %_combtime%
/wb,file,end               ! done with WB generated input
