/batch
/config,noeldb,1     ! force off writing results to database
*get,_wallstrt,active,,time,wall
! ANSYS input file written by Workbench version 2020 R2
! File used for geometry attach: C:\Users\shohei\Downloads\fem-izumi\5-2-5\beam element dependency_files\dp0\SYS\DM\SYS.agdb
/title,beam element dependency--Static Structural (A5)
*DIM,_wb_ProjectScratch_dir,string,248
_wb_ProjectScratch_dir(1) = 'C:\Users\shohei\Downloads\fem-izumi\5-2-5\_ProjectScratch\Scr1EB4\'
*DIM,_wb_SolverFiles_dir,string,248
_wb_SolverFiles_dir(1) = 'C:\Users\shohei\Downloads\fem-izumi\5-2-5\beam element dependency_files\dp0\SYS\MECH\'
*DIM,_wb_userfiles_dir,string,248
_wb_userfiles_dir(1) = 'C:\Users\shohei\Downloads\fem-izumi\5-2-5\beam element dependency_files\user_files\'
/com,--- Data in consistent NMM units. See Solving Units in the help system for more information.
/units,MPA
/nopr
/wb,file,start              !  signify a WB generated input file
/prep7
! Turn off shape checking because checks already performed inside WB mesher.
! See help system for more information.
SHPP,OFF,,NOWARN
/nolist
etcon,set             ! allow ANSYS to choose best KEYOP's for 180x elements
/com,*********** Nodes for the whole assembly ***********
nblock,3,,91
(1i9,3e20.9e3)
        1     0.000000000E+00     1.000000000E+01     0.000000000E+00
        2     0.000000000E+00     0.000000000E+00     0.000000000E+00
        3     0.000000000E+00     6.666666667E+00     0.000000000E+00
        4     0.000000000E+00     3.333333333E+00     0.000000000E+00
        5     1.000000000E+02     0.000000000E+00     0.000000000E+00
        6     4.000000000E+00     0.000000000E+00     0.000000000E+00
        7     8.000000000E+00     0.000000000E+00     0.000000000E+00
        8     1.200000000E+01     0.000000000E+00     0.000000000E+00
        9     1.600000000E+01     0.000000000E+00     0.000000000E+00
       10     2.000000000E+01     0.000000000E+00     0.000000000E+00
       11     2.400000000E+01     0.000000000E+00     0.000000000E+00
       12     2.800000000E+01     0.000000000E+00     0.000000000E+00
       13     3.200000000E+01     0.000000000E+00     0.000000000E+00
       14     3.600000000E+01     0.000000000E+00     0.000000000E+00
       15     4.000000000E+01     0.000000000E+00     0.000000000E+00
       16     4.400000000E+01     0.000000000E+00     0.000000000E+00
       17     4.800000000E+01     0.000000000E+00     0.000000000E+00
       18     5.200000000E+01     0.000000000E+00     0.000000000E+00
       19     5.600000000E+01     0.000000000E+00     0.000000000E+00
       20     6.000000000E+01     0.000000000E+00     0.000000000E+00
! ... 64 like lines cut
/wb,elem,start            !  set before creation of elements
/com,*********** Elements for Body 1 "Surface Body" ***********
et,1,182
keyo,1,3,5
eblock,19,solid,,108
(19i9)
        1        1        1        1        0        0        0        0        4        0        1       10       11       59       59
        1        1        1        1        0        0        0        0        4        0        2       53       54       58       58
        1        1        1        1        0        0        0        0        4        0        3        8        9       58       58
        1        1        1        1        0        0        0        0        4        0        4       55       56       57       57
        1        1        1        1        0        0        0        0        4        0        5        1        3       56       56
        1        1        1        1        0        0        0        0        4        0        6       68       83       80       80
        1        1        1        1        0        0        0        0        4        0        7       57       81       82       82
        1        1        1        1        0        0        0        0        4        0        8       30       33       32       32
        1        1        1        1        0        0        0        0        4        0        9       51       52       59       59
        1        1        1        1        0        0        0        0        4        0       10       12       13       60       60
        1        1        1        1        0        0        0        0        4        0       11       49       50       60       60
        1        1        1        1        0        0        0        0        4        0       12       14       15       61       61
        1        1        1        1        0        0        0        0        4        0       13       47       48       61       61
        1        1        1        1        0        0        0        0        4        0       14       16       17       62       62
        1        1        1        1        0        0        0        0        4        0       15       45       46       62       62
        1        1        1        1        0        0        0        0        4        0       16       18       19       63       63
        1        1        1        1        0        0        0        0        4        0       17       43       44       63       63
        1        1        1        1        0        0        0        0        4        0       18       20       21       64       64
        1        1        1        1        0        0        0        0        4        0       19       41       42       64       64
        1        1        1        1        0        0        0        0        4        0       20       22       23       65       65
! ... 89 like lines cut
!Material Id = {AE458A0F-B5BE-49F0-8B73-877F618883BB}
/wb,elem,end               !  done creating elements
/com,*********** Send User Defined Coordinate System(s) ***********
csys,0
toffst,273.15,  ! Temperature offset from absolute zero
/com,*********** Set Reference Temperature ***********
tref,22.
/wb,mat,start              !  starting to send materials
/com,*********** Send Materials ***********
MP,EX,1,205000,	! tonne s^-2 mm^-1
MP,NUXY,1,0.3,

/wb,mat,end                !  done sending materials
/com,*********** Send Sheet Properties ***********
!************************* Model Summary ********************
!Surface Body,	S45C,	matid,	1
!************************* End Model Summary ********************
! get the diagonal of the bounding box. Needed later for other things
*get,_xmin,node,,mnloc,x
*get,_ymin,node,,mnloc,y
*get,_zmin,node,,mnloc,z
*get,_xmax,node,,mxloc,x
*get,_ymax,node,,mxloc,y
*get,_zmax,node,,mxloc,z
_ASMDIAG=(_xmax-_xmin)*(_xmax-_xmin)+(_ymax-_ymin)*(_ymax-_ymin)+(_zmax-_zmin)*(_zmax-_zmin)
_ASMDIAG=SQRT(_ASMDIAG)
/wb,contact,start          !  starting to send contact
/wb,contact,end            !  done creating contacts
/golist
/com,*********** Send Generalized Plane Strain Geometry ***********
gsgdata,10.000000,0.000000,0.000000,0.000000,0.000000
/wb,load,start             !  starting to send loads
/com,*********** Fixed Supports ***********
CMBLOCK,_FIXEDSU,NODE,        4
(8i10)
         1         2         3         4
cmsel,s,_FIXEDSU
d,all,all
nsel,all
/com,*********** Define Force Using Surface Effect Elements ***********
local,12,0,0.,0.,0.,0.,0.,0.
csys,0
et,2,153
keyop,2,3,10        ! get plane stress option and thickness from underlying element
eblock,10,,,3
(15i9)
      109        2        2        2       12       30       32
      110        2        2        2       12       32       31
      111        2        2        2       12       31        5
-1
esel,s,type,,2
keyop,2,2,1                ! Apply load in local coordinate system
keyop,2,7,1                ! Use original area so load is constant in large deformation
keyop,2,11,2               ! Use real and not project area
esel,all
/com,*********** Send Generalized Plane Strain Load ***********
gsbdata,,0.000000e+00,,0.000000,,0.000000,
gslist,all
/gst,on,on
fini
*get,_numnode,node,0,count
*get,_numelem,elem,0,count
*get, _MAXELEMNUM, elem, 0, NUM, MAX
*get, _MAXNODENUM, node, 0, NUM, MAX
*get, _MAXELEMTYPE, etyp, 0, NUM, MAX
*get, _MAXREALCONST, real, 0, NUM, MAX
/go
/wb,load,end               !  done creating loads
/com,--- Number of total nodes = %_numnode%
/com,--- Number of contact elements = 3
/com,--- Number of spring elements = 0
/com,--- Number of bearing elements = 0
/com,--- Number of solid elements = 108
/com,--- Number of condensed parts = 0
/com,--- Number of total elements = %_numelem%
*get,_wallbsol,active,,time,wall
/com,****************************************************************************
/com,*************************    SOLUTION       ********************************
/com,****************************************************************************
/solu
antype,0                   ! static analysis
_thickRatio=  0     ! Ratio of thick parts in the model
eqsl,sparse,,,,,1
cntr,print,1               ! print out contact info and also make no initial contact an error
dmpoption,emat,no             ! Don't combine emat file for DANSYS
dmpoption,esav,no             ! Don't combine esav file for DANSYS
nldiag,cont,iter           ! print out contact info each equilibrium iteration
rescontrol,,none                 ! Do not keep any restart files
/com,****************************************************
/com,******************* SOLVE FOR LS 1 OF 1 ****************
esel,s,type,,2
nsle
sfe,all,1,pres,1,0.
sfe,all,2,pres,1,-1.
nsel,all
esel,all
/nopr
/gopr
nsub,1,1,1
time,1.
outres,erase
outres,all,none
outres,nsol,all,
outres,rsol,all
outres,eangl,all
outres,etmp,all
outres,veng,all
outres,strs,all,
outres,epel,all,
outres,eppl,all,
outres,cont,all,
! *********** WB SOLVE COMMAND ***********
! check interactive state
*get,ANSINTER_,active,,int
*if,ANSINTER_,ne,0,then
/eof
*endif
solve
/com *************** Write FE CONNECTORS ********* 
CEWRITE,file,ce,,INTE
/com,****************************************************
/com,*************** FINISHED SOLVE FOR LS 1 *************
*get,_wallasol,active,,time,wall
/nopr
*get,_numnode,node,0,count
*get,_numelem,elem,0,count
*get, _MAXELEMNUM, elem, 0, NUM, MAX
*get, _MAXNODENUM, node, 0, NUM, MAX,,,INTERNAL
*get, _MAXELEMTYPE, etyp, 0, NUM, MAX
*get, _MAXREALCONST, real, 0, NUM, MAX
/gopr
/post1
xmlo,ENCODING,ISO-8859-1
xmlo,parm
/xml,parm,xml
fini
/gopr
*get,_walldone,active,,time,wall
_preptime=(_wallbsol-_wallstrt)*3600
_solvtime=(_wallasol-_wallbsol)*3600
_posttime=(_walldone-_wallasol)*3600
_totaltim=(_walldone-_wallstrt)*3600
*get,_dlbratio,active,0,solu,dlbr
*get,_combtime,active,0,solu,comb
/com,--- Total number of nodes = %_numnode%
/com,--- Total number of elements = %_numelem%
/com,--- Element load balance ratio = %_dlbratio%
/com,--- Time to combine distributed files = %_combtime%
/wb,file,end               ! done with WB generated input
