/batch
/config,noeldb,1     ! force off writing results to database
*get,_wallstrt,active,,time,wall
! ANSYS input file written by Workbench version 2020 R2
! File used for geometry attach: C:\Users\shohei\Downloads\fem-izumi\5-3-2\bending of structure with a hole_files\dp0\SYS\DM\SYS.agdb
/title,bending of structure with a hole--Static Structural (A5)
*DIM,_wb_ProjectScratch_dir,string,248
_wb_ProjectScratch_dir(1) = 'C:\Users\shohei\Downloads\fem-izumi\5-3-2\_ProjectScratch\ScrA9B9\'
*DIM,_wb_SolverFiles_dir,string,248
_wb_SolverFiles_dir(1) = 'C:\Users\shohei\Downloads\fem-izumi\5-3-2\bending of structure with a hole_files\dp0\SYS\MECH\'
*DIM,_wb_userfiles_dir,string,248
_wb_userfiles_dir(1) = 'C:\Users\shohei\Downloads\fem-izumi\5-3-2\bending of structure with a hole_files\user_files\'
/com,--- Data in consistent NMM units. See Solving Units in the help system for more information.
/units,MPA
/nopr
/wb,file,start              !  signify a WB generated input file
/prep7
! Turn off shape checking because checks already performed inside WB mesher.
! See help system for more information.
SHPP,OFF,,NOWARN
/nolist
etcon,set             ! allow ANSYS to choose best KEYOP's for 180x elements
/com,*********** Nodes for the whole assembly ***********
nblock,3,,7989
(1i9,3e20.9e3)
        1     1.389883173E+02     1.504606510E+01     0.000000000E+00
        2     1.392080064E+02     3.509279859E+01     0.000000000E+00
        3     1.281848160E+02     1.278090889E+01     0.000000000E+00
        4     1.295120326E+02     1.537138359E+01     0.000000000E+00
        5     8.886397757E+01     1.598161876E+01     0.000000000E+00
        6     8.792651600E+01     1.563302733E+01     0.000000000E+00
        7     8.612449471E+01     2.989063181E+01     0.000000000E+00
        8     8.783766547E+01     1.455306181E+01     0.000000000E+00
        9     1.285486085E+02     2.568555862E+01     0.000000000E+00
       10     1.271837773E+02     2.584366056E+01     0.000000000E+00
       11     1.256152413E+02     2.624032182E+01     0.000000000E+00
       12     1.255235415E+02     2.446659974E+01     0.000000000E+00
       13     1.272676935E+02     2.274570964E+01     0.000000000E+00
       14     1.272227968E+02     2.426948999E+01     0.000000000E+00
       15     1.290506989E+02     2.449105838E+01     0.000000000E+00
       16     1.311071411E+02     2.340610180E+01     0.000000000E+00
       17     1.291989697E+02     2.286840312E+01     0.000000000E+00
       18     1.309160653E+02     2.546617714E+01     0.000000000E+00
       19     1.292394813E+02     2.660180828E+01     0.000000000E+00
       20     1.257107432E+02     2.819989750E+01     0.000000000E+00
! ... 7244 like lines cut
/wb,elem,start            !  set before creation of elements
/com,*********** Elements for Body 1 "Surface Body" ***********
et,1,183
keyo,1,3,3
eblock,19,solid,,2313
(19i9)
        1        1        1        1        0        0        0        0        8        0      507      132      241      242      242     2981     3216      242     2982
        1        1        1        1        0        0        0        0        8        0      508       66      239      240      240     2801     3214      240     2802
        1        1        1        1        0        0        0        0        8        0      509      222      223      119      119     3193     2940      119     2939
        1        1        1        1        0        0        0        0        8        0      510      217      120      216      216     2943     2942      216     3184
        1        1        1        1        0        0        0        0        8        0      511      123      171      122      122     2951     2948      122     2947
        1        1        1        1        0        0        0        0        8        0      512       99       58      400      400     2775     2777      400     2888
        1        1        1        1        0        0        0        0        8        0      513      380      404      232      232     3350     3205      232     3204
        1        1        1        1        0        0        0        0        8        0      514       30       21       24       24     2678     2676       24     2684
        1        1        1        1        0        0        0        0        8        0      515      388       23       50       50     2683     2682       50     2757
        1        1        1        1        0        0        0        0        8        0     1110     1304     1298      933      933     4703     5201      933     5233
        1        1        1        1        0        0        0        0        8        0     1111     1069     1295     1197     1197     5186     4705     1197     6192
        1        1        1        1        0        0        0        0        8        0     1112     1070     1197     1330     1330     6199     4704     1330     5345
        1        1        1        1        0        0        0        0        8        0     1114     1297     1289      929      929     4706     5157      929     5197
        1        1        1        1        0        0        0        0        8        0     1115     1052     1325     1198     1198     5319     4708     1198     6186
        1        1        1        1        0        0        0        0        8        0     1117     1281     1254      938      938     4709     4975      938     5112
        1        1        1        1        0        0        0        0        8        0     1119     1275     1199      925      925     4710     4717      925     5080
        1        1        1        1        0        0        0        0        8        0     1121     1309     1267      940      940     4711     5040      940     5256
        1        1        1        1        0        0        0        0        8        0     1123     1228     1256      950      950     4712     4986      950     4861
        1        1        1        1        0        0        0        0        8        0     1125     1249     1259      945      945     4713     4999      945     4953
        1        1        1        1        0        0        0        0        8        0     1280     1699     1271     1050     1050     5061     5060     1050     5059
! ... 2294 like lines cut
!Material Id = {7FF2B6D5-6B4C-4625-92B7-A42F2367A2DE}
/wb,elem,end               !  done creating elements
/com,*********** Send User Defined Coordinate System(s) ***********
csys,0
toffst,273.15,  ! Temperature offset from absolute zero
/com,*********** Set Reference Temperature ***********
tref,22.
/wb,mat,start              !  starting to send materials
/com,*********** Send Materials ***********
MP,EX,1,205000,	! tonne s^-2 mm^-1
MP,NUXY,1,0.28,

/wb,mat,end                !  done sending materials
/com,*********** Send Sheet Properties ***********
r,1,1.

!************************* Model Summary ********************
!Surface Body,	S45C,	matid,	1
!************************* End Model Summary ********************
! get the diagonal of the bounding box. Needed later for other things
*get,_xmin,node,,mnloc,x
*get,_ymin,node,,mnloc,y
*get,_zmin,node,,mnloc,z
*get,_xmax,node,,mxloc,x
*get,_ymax,node,,mxloc,y
*get,_zmax,node,,mxloc,z
_ASMDIAG=(_xmax-_xmin)*(_xmax-_xmin)+(_ymax-_ymin)*(_ymax-_ymin)+(_zmax-_zmin)*(_zmax-_zmin)
_ASMDIAG=SQRT(_ASMDIAG)
/wb,contact,start          !  starting to send contact
/wb,contact,end            !  done creating contacts
/com,*********** Send Named Selection as Node Component ***********
CMBLOCK,MYROI   ,NODE,     3358
(8i10)
         1         2         3         4         5         6         7         8
         9        10        11        12        13        14        15        16
        17        18        19        20        21        22        23        24
        25        26        27        28        29        30        31        32
        33        34        35        36        37        38        39        40
        41        42        43        44        45        46        47        48
        49        50        51        52        53        54        55        56
        57        58        59        60        61        62        63        64
        65        66        67        68        69        70        71        72
        73        74        75        76        77        78        79        80
        81        82        83        84        85        86        87        88
        89        90        91        92        93        94        95        96
        97        98        99       100       101       102       103       104
       105       106       107       108       109       110       111       112
       113       114       115       116       117       118       119       120
       121       122       123       124       125       126       127       128
       129       130       131       132       133       134       135       136
       137       138       139       140       141       142       143       144
       145       146       147       148       149       150       151       152
       153       154       155       156       157       158       159       160
! ... 400 like lines cut
/golist
/wb,load,start             !  starting to send loads
/com,*********** Fixed Supports ***********
CMBLOCK,_FIXEDSU,NODE,       21
(8i10)
      2219      2220      2221      2222      2223      2224      2225      2226
      2227      2228      2234      6970      6972      6974      6976      6978
      6980      6982      6984      6986      6996
cmsel,s,_FIXEDSU
d,all,all
nsel,all
/com,*********** Define Vertex Force Using Follower Elements ***********
et,2,201
keyo,2,1,1           ! Keep the direction constant
keyo,2,2,1           ! Apply Forces only, not moment
mat,2
real,2
type,2
en,2314,2353
r,2
rmod,2,1,1.0,              ! FX
mat,3
real,3
type,2
en,2315,2353
r,3
rmod,3,2,1.0,              ! FY
/gst,on,on
fini
*get,_numnode,node,0,count
*get,_numelem,elem,0,count
*get, _MAXELEMNUM, elem, 0, NUM, MAX
*get, _MAXNODENUM, node, 0, NUM, MAX
*get, _MAXELEMTYPE, etyp, 0, NUM, MAX
*get, _MAXREALCONST, real, 0, NUM, MAX
/go
/wb,load,end               !  done creating loads
/com,--- Number of total nodes = %_numnode%
/com,--- Number of contact elements = 0
/com,--- Number of spring elements = 0
/com,--- Number of bearing elements = 0
/com,--- Number of solid elements = 2313
/com,--- Number of condensed parts = 0
/com,--- Number of total elements = %_numelem%
*get,_wallbsol,active,,time,wall
/com,****************************************************************************
/com,*************************    SOLUTION       ********************************
/com,****************************************************************************
/solu
antype,0                   ! static analysis
_thickRatio=  0     ! Ratio of thick parts in the model
eqsl,sparse,,,,,1
cntr,print,1               ! print out contact info and also make no initial contact an error
dmpoption,emat,no             ! Don't combine emat file for DANSYS
dmpoption,esav,no             ! Don't combine esav file for DANSYS
nldiag,cont,iter           ! print out contact info each equilibrium iteration
rescontrol,,none                 ! Do not keep any restart files
/com,****************************************************
/com,******************* SOLVE FOR LS 1 OF 1 ****************
esel,s,real,,2
sfe,all,1,pres,1,0.
esel,s,real,,3
sfe,all,1,pres,1,-450.
esel,all
/nopr
/gopr
nsub,1,1,1
time,1.
outres,erase
outres,all,none
outres,nsol,all,
outres,rsol,all
outres,eangl,all
outres,etmp,all
outres,veng,all
outres,strs,all,
outres,epel,all,
outres,eppl,all,
outres,cont,all,
! *********** WB SOLVE COMMAND ***********
! check interactive state
*get,ANSINTER_,active,,int
*if,ANSINTER_,ne,0,then
/eof
*endif
solve
/com *************** Write FE CONNECTORS ********* 
CEWRITE,file,ce,,INTE
/com,****************************************************
/com,*************** FINISHED SOLVE FOR LS 1 *************
*get,_wallasol,active,,time,wall
/nopr
*get,_numnode,node,0,count
*get,_numelem,elem,0,count
*get, _MAXELEMNUM, elem, 0, NUM, MAX
*get, _MAXNODENUM, node, 0, NUM, MAX,,,INTERNAL
*get, _MAXELEMTYPE, etyp, 0, NUM, MAX
*get, _MAXREALCONST, real, 0, NUM, MAX
/gopr
/post1
xmlo,ENCODING,ISO-8859-1
xmlo,parm
/xml,parm,xml
fini
/gopr
*get,_walldone,active,,time,wall
_preptime=(_wallbsol-_wallstrt)*3600
_solvtime=(_wallasol-_wallbsol)*3600
_posttime=(_walldone-_wallasol)*3600
_totaltim=(_walldone-_wallstrt)*3600
*get,_dlbratio,active,0,solu,dlbr
*get,_combtime,active,0,solu,comb
/com,--- Total number of nodes = %_numnode%
/com,--- Total number of elements = %_numelem%
/com,--- Element load balance ratio = %_dlbratio%
/com,--- Time to combine distributed files = %_combtime%
/wb,file,end               ! done with WB generated input
