/batch
/config,noeldb,1     ! force off writing results to database
*get,_wallstrt,active,,time,wall
! ANSYS input file written by Workbench version 2020 R2
! File used for geometry attach: C:\Users\shohei\Downloads\fem-izumi\5-5\beam1_files\dp0\SYS\DM\SYS.agdb
/title,beam1--Static Structural (B5)
*DIM,_wb_ProjectScratch_dir,string,248
_wb_ProjectScratch_dir(1) = 'C:\Users\shohei\Downloads\fem-izumi\5-5\_ProjectScratch\Scr698B\'
*DIM,_wb_SolverFiles_dir,string,248
_wb_SolverFiles_dir(1) = 'C:\Users\shohei\Downloads\fem-izumi\5-5\beam1_files\dp0\SYS-1\MECH\'
*DIM,_wb_userfiles_dir,string,248
_wb_userfiles_dir(1) = 'C:\Users\shohei\Downloads\fem-izumi\5-5\beam1_files\user_files\'
/com,--- Data in consistent NMM units. See Solving Units in the help system for more information.
/units,MPA
/nopr
/wb,file,start              !  signify a WB generated input file
/prep7
! Turn off shape checking because checks already performed inside WB mesher.
! See help system for more information.
SHPP,OFF,,NOWARN
/nolist
etcon,set             ! allow ANSYS to choose best KEYOP's for 180x elements
/com,*********** Nodes for the whole assembly ***********
nblock,3,,5355
(1i9,3e20.9e3)
        1     0.000000000E+00    -1.425000000E+01     2.450000000E+02
        2     0.000000000E+00    -1.425000000E+01     2.400000000E+02
        3     0.000000000E+00    -1.425000000E+01     2.350000000E+02
        4     0.000000000E+00    -1.425000000E+01     2.300000000E+02
        5     0.000000000E+00    -1.425000000E+01     2.250000000E+02
        6     0.000000000E+00    -1.425000000E+01     2.200000000E+02
        7     0.000000000E+00    -1.425000000E+01     2.150000000E+02
        8     0.000000000E+00    -1.425000000E+01     2.100000000E+02
        9     0.000000000E+00    -1.425000000E+01     2.050000000E+02
       10     0.000000000E+00    -1.425000000E+01     2.000000000E+02
       11     0.000000000E+00    -1.425000000E+01     1.950000000E+02
       12     0.000000000E+00    -1.425000000E+01     1.900000000E+02
       13     0.000000000E+00    -1.425000000E+01     1.850000000E+02
       14     0.000000000E+00    -1.425000000E+01     1.800000000E+02
       15     0.000000000E+00    -1.425000000E+01     1.750000000E+02
       16     0.000000000E+00    -1.425000000E+01     1.700000000E+02
       17     0.000000000E+00    -1.425000000E+01     1.650000000E+02
       18     0.000000000E+00    -1.425000000E+01     1.600000000E+02
       19     0.000000000E+00    -1.425000000E+01     1.550000000E+02
       20     0.000000000E+00    -1.425000000E+01     1.500000000E+02
! ... 4850 like lines cut
/wb,elem,start            !  set before creation of elements
/com,*********** Elements for Body 1 "Solid" ***********
et,1,186
keyo,1,2,1          ! set full integration on SOLID186
eblock,19,solid,,800
(19i9)
        1        1        1        1        0        0        0        0       20        0        1        1     1350     1247     1194      686     1357     1246     1195
     1383     4676     4620     1382     3547     4675     4622     3546     1380     4833     4674     4619
        1        1        1        1        0        0        0        0       20        0        2        1     1194     1247     1350      687     1144     1145     1037
     1382     4620     4676     1383     3551     4519     4306     3550     1381     4520     4521     4307
        1        1        1        1        0        0        0        0       20        0        3        1       50     1351     1350      686      637     1358     1357
     1379     1628     4832     1383     3447     3448     4845     3547     1380     1626     4835     4833
        1        1        1        1        0        0        0        0       20        0        4        1     1350     1351       50      687     1037     1038      736
     1383     4832     1628     1379     3550     4305     3698     3549     1381     4307     4309     1627
        1        1        1        1        0        0        0        0       20        0        5       50       99     1352     1351      637      588     1359     1358
     1625     1825     4834     1628     3348     3349     4846     3448     1626     1823     4837     4835
        1        1        1        1        0        0        0        0       20        0        6       50     1351     1352       99      736     1038     1039      785
     1628     4834     1825     1625     3698     4308     3797     3697     1627     4309     4311     1824
        1        1        1        1        0        0        0        0       20        0        7       99      148     1353     1352      588      539     1360     1359
     1822     2022     4836     1825     3249     3250     4847     3349     1823     2020     4839     4837
        1        1        1        1        0        0        0        0       20        0        8       99     1352     1353      148      785     1039     1040      834
     1825     4836     2022     1822     3797     4310     3896     3796     1824     4311     4313     2021
        1        1        1        1        0        0        0        0       20        0        9      148      197     1354     1353      539      490     1361     1360
     2019     2219     4838     2022     3150     3151     4848     3250     2020     2217     4841     4839
        1        1        1        1        0        0        0        0       20        0       10      148     1353     1354      197      834     1040     1041      883
     2022     4838     2219     2019     3896     4312     3995     3895     2021     4313     4315     2218
! ... 1581 like lines cut
!Material Id = {D4C36ED1-B16B-4BAA-9130-DB0CBE21FE1D}
/wb,elem,end               !  done creating elements
/com,*********** Send User Defined Coordinate System(s) ***********
csys,0
toffst,273.15,  ! Temperature offset from absolute zero
/com,*********** Set Reference Temperature ***********
tref,22.
/wb,mat,start              !  starting to send materials
/com,*********** Send Materials ***********
MP,EX,1,205000,	! tonne s^-2 mm^-1
MP,NUXY,1,0.3,

/wb,mat,end                !  done sending materials
!************************* Model Summary ********************
!Solid,	S45C,	matid,	1
!************************* End Model Summary ********************
! get the diagonal of the bounding box. Needed later for other things
*get,_xmin,node,,mnloc,x
*get,_ymin,node,,mnloc,y
*get,_zmin,node,,mnloc,z
*get,_xmax,node,,mxloc,x
*get,_ymax,node,,mxloc,y
*get,_zmax,node,,mxloc,z
_ASMDIAG=(_xmax-_xmin)*(_xmax-_xmin)+(_ymax-_ymin)*(_ymax-_ymin)+(_zmax-_zmin)*(_zmax-_zmin)
_ASMDIAG=SQRT(_ASMDIAG)
/wb,contact,start          !  starting to send contact
/wb,contact,end            !  done creating contacts
/golist
/wb,load,start             !  starting to send loads
/com,*********** Fixed Supports ***********
CMBLOCK,_FIXEDSU,NODE,       69
(8i10)
      1030      1031      1032      1033      1034      1035      1036      1044
      1095      1244      1245      1346      1347      1364      1365      1366
      1367      1368      1369      1370      1371      1372      1373      1374
      1375      1376      1377      4290      4291      4292      4293      4294
      4295      4296      4297      4298      4299      4300      4301      4302
      4303      4304      4321      4422      4671      4672      4673      4826
      4827      4828      4851      4852      4853      4854      4855      4856
      4857      4858      4859      4860      4861      4862      4863      4864
      4865      4866      4867      4868      4869
cmsel,s,_FIXEDSU
d,all,all
nsel,all
/com,******* Constant Zero Displacement X *******
CMBLOCK,_DISPZEROUX,NODE,       69
(8i10)
      1037      1038      1039      1040      1041      1042      1043      1094
      1145      1246      1247      1348      1349      1350      1351      1352
      1353      1354      1355      1356      1357      1358      1359      1360
      1361      1362      1363      4305      4306      4307      4308      4309
      4310      4311      4312      4313      4314      4315      4316      4317
      4318      4319      4420      4521      4674      4675      4676      4829
      4830      4831      4832      4833      4834      4835      4836      4837
      4838      4839      4840      4841      4842      4843      4844      4845
      4846      4847      4848      4849      4850
cmsel,s,_DISPZEROUX
d,all,ux,0
nsel,all
/com,******* Constant Zero Displacement Z *******
CMBLOCK,_DISPZEROUZ,NODE,       69
(8i10)
      1037      1038      1039      1040      1041      1042      1043      1094
      1145      1246      1247      1348      1349      1350      1351      1352
      1353      1354      1355      1356      1357      1358      1359      1360
      1361      1362      1363      4305      4306      4307      4308      4309
      4310      4311      4312      4313      4314      4315      4316      4317
      4318      4319      4420      4521      4674      4675      4676      4829
      4830      4831      4832      4833      4834      4835      4836      4837
      4838      4839      4840      4841      4842      4843      4844      4845
      4846      4847      4848      4849      4850
cmsel,s,_DISPZEROUZ
d,all,uz,0
nsel,all
/com,*********** Define Force Using Surface Effect Elements ***********
local,12,0,0.,0.,0.,0.,0.,0.
csys,0
et,2,156
keyop,2,5,1         !  No orientation node
eblock,10,,,2
(15i9)
     1833        2        2        2       12     1348     1349     4829
     1834        2        2        2       12     1348     1094     4420
-1
esel,s,type,,2
keyop,2,2,1                ! Apply load in local coordinate system
keyop,2,7,1                ! Use original area so load is constant in large deformation
esel,all
/gst,on,on
fini
*get,_numnode,node,0,count
*get,_numelem,elem,0,count
*get, _MAXELEMNUM, elem, 0, NUM, MAX
*get, _MAXNODENUM, node, 0, NUM, MAX
*get, _MAXELEMTYPE, etyp, 0, NUM, MAX
*get, _MAXREALCONST, real, 0, NUM, MAX
/go
/wb,load,end               !  done creating loads
/com,--- Number of total nodes = %_numnode%
/com,--- Number of contact elements = 2
/com,--- Number of spring elements = 0
/com,--- Number of bearing elements = 0
/com,--- Number of solid elements = 800
/com,--- Number of condensed parts = 0
/com,--- Number of total elements = %_numelem%
*get,_wallbsol,active,,time,wall
/com,****************************************************************************
/com,*************************    SOLUTION       ********************************
/com,****************************************************************************
/solu
antype,0                   ! static analysis
_thickRatio=  0     ! Ratio of thick parts in the model
eqsl,sparse,,,,,1
cntr,print,1               ! print out contact info and also make no initial contact an error
dmpoption,emat,no             ! Don't combine emat file for DANSYS
dmpoption,esav,no             ! Don't combine esav file for DANSYS
nldiag,cont,iter           ! print out contact info each equilibrium iteration
rescontrol,,none                 ! Do not keep any restart files
/com,****************************************************
/com,******************* SOLVE FOR LS 1 OF 1 ****************
esel,s,type,,2
nsle
sfe,all,1,pres,1,0.
sfe,all,2,pres,1,-263.157894736842
sfe,all,3,pres,1,0.
nsel,all
esel,all
/nopr
/gopr
nsub,1,1,1
time,1.
outres,erase
outres,all,none
outres,nsol,all,
outres,rsol,all
outres,eangl,all
outres,etmp,all
outres,veng,all
outres,strs,all,
outres,epel,all,
outres,eppl,all,
outres,cont,all,
! *********** WB SOLVE COMMAND ***********
! check interactive state
*get,ANSINTER_,active,,int
*if,ANSINTER_,ne,0,then
/eof
*endif
solve
/com *************** Write FE CONNECTORS ********* 
CEWRITE,file,ce,,INTE
/com,****************************************************
/com,*************** FINISHED SOLVE FOR LS 1 *************
*get,_wallasol,active,,time,wall
/nopr
*get,_numnode,node,0,count
*get,_numelem,elem,0,count
*get, _MAXELEMNUM, elem, 0, NUM, MAX
*get, _MAXNODENUM, node, 0, NUM, MAX,,,INTERNAL
*get, _MAXELEMTYPE, etyp, 0, NUM, MAX
*get, _MAXREALCONST, real, 0, NUM, MAX
/gopr
/post1
xmlo,ENCODING,ISO-8859-1
xmlo,parm
/xml,parm,xml
fini
/gopr
*get,_walldone,active,,time,wall
_preptime=(_wallbsol-_wallstrt)*3600
_solvtime=(_wallasol-_wallbsol)*3600
_posttime=(_walldone-_wallasol)*3600
_totaltim=(_walldone-_wallstrt)*3600
*get,_dlbratio,active,0,solu,dlbr
*get,_combtime,active,0,solu,comb
/com,--- Total number of nodes = %_numnode%
/com,--- Total number of elements = %_numelem%
/com,--- Element load balance ratio = %_dlbratio%
/com,--- Time to combine distributed files = %_combtime%
/wb,file,end               ! done with WB generated input
