/batch
/config,noeldb,1     ! force off writing results to database
*get,_wallstrt,active,,time,wall
! ANSYS input file written by Workbench version 2020 R2
! File used for geometry attach: C:\Users\shohei\Downloads\fem-izumi\5-3-9\C clamp_files\dp0\SYS\DM\SYS.agdb
/title,C clamp--Static Structural (A5)
*DIM,_wb_ProjectScratch_dir,string,248
_wb_ProjectScratch_dir(1) = 'C:\Users\shohei\Downloads\fem-izumi\5-3-9\_ProjectScratch\ScrD2DB\'
*DIM,_wb_SolverFiles_dir,string,248
_wb_SolverFiles_dir(1) = 'C:\Users\shohei\Downloads\fem-izumi\5-3-9\C clamp_files\dp0\SYS\MECH\'
*DIM,_wb_userfiles_dir,string,248
_wb_userfiles_dir(1) = 'C:\Users\shohei\Downloads\fem-izumi\5-3-9\C clamp_files\user_files\'
/com,--- Data in consistent NMM units. See Solving Units in the help system for more information.
/units,MPA
/nopr
/wb,file,start              !  signify a WB generated input file
/prep7
! Turn off shape checking because checks already performed inside WB mesher.
! See help system for more information.
SHPP,OFF,,NOWARN
/nolist
etcon,set             ! allow ANSYS to choose best KEYOP's for 180x elements
/com,*********** Nodes for the whole assembly ***********
nblock,3,,4842
(1i9,3e20.9e3)
        1     1.422886524E+01     1.051104527E+02     0.000000000E+00
        2     1.357539019E+01     1.050917501E+02     0.000000000E+00
        3     1.411039443E+01     1.042504940E+02     0.000000000E+00
        4     1.323109298E+01     1.044343883E+02     0.000000000E+00
        5     1.281596607E+01     1.036447865E+02     0.000000000E+00
        6     1.233208458E+01     1.066955113E+02     0.000000000E+00
        7     1.792221077E+00     9.541758005E+01     0.000000000E+00
        8     1.059074555E+01     9.885001093E+01     0.000000000E+00
        9     6.797822644E+00     9.966772314E+01     0.000000000E+00
       10     9.199504684E+00     1.149600833E+02     0.000000000E+00
       11     1.110022047E+02     3.792171166E+01     0.000000000E+00
       12     1.090508236E+02     6.214056140E+01     0.000000000E+00
       13     8.919501815E+01     8.457216022E+01     0.000000000E+00
       14     1.114780509E+02     4.143515096E+01     0.000000000E+00
       15     1.108824161E+02     5.862208261E+01     0.000000000E+00
       16     1.010514197E+02     7.573390282E+01     0.000000000E+00
       17     9.959065133E+01     7.713020325E+01     0.000000000E+00
       18     1.023556258E+02     7.431572716E+01     0.000000000E+00
       19     1.115949243E+02     2.828134077E+01     0.000000000E+00
       20     1.645656795E+01     8.727320266E+01     0.000000000E+00
! ... 4383 like lines cut
/wb,elem,start            !  set before creation of elements
/com,*********** Elements for Body 1 "Surface Body" ***********
et,1,183
keyo,1,3,3
eblock,19,solid,,1385
(19i9)
        1        1        1        1        0        0        0        0        8        0       48     1179      994     1120     1120     3716     3721     1120     3718
        1        1        1        1        0        0        0        0        8        0     1267       74     1027       47       47     1926     1849       47     1846
        1        1        1        1        0        0        0        0        8        0     1268      104       64       66       66     1900     1899       66     1904
        1        1        1        1        0        0        0        0        8        0     1269       26       25      942      942     1773     1776      942     1778
        1        1        1        1        0        0        0        0        8        0     1270      114       54      946      946     1868     1870      946     2027
        1        1        1        1        0        0        0        0        8        0     1271      397      402      440      440     2693     2708      440     2695
        1        1        1        1        0        0        0        0        8        0        1      623     1106        2        1     3811     1512     1511     1510
        1        1        1        1        0        0        0        0        8        0        2     1073      623        1     1177     3858     1510     3727     3728
        1        1        1        1        0        0        0        0        8        0        3     1074     1177        1        3     3729     3727     1514     3726
        1        1        1        1        0        0        0        0        8        0        4        4        3        1        2     1515     1514     1511     1513
        1        1        1        1        0        0        0        0        8        0        5     1106      615        4        2     3813     1517     1513     1512
        1        1        1        1        0        0        0        0        8        0        6     1074        3     1105     1180     3726     3735     3711     3712
        1        1        1        1        0        0        0        0        8        0        7        4        5     1105        3     1516     3737     3735     1515
        1        1        1        1        0        0        0        0        8        0        8      615     1107        5        4     3753     1521     1516     1517
        1        1        1        1        0        0        0        0        8        0        9     1185     1110     1183      611     1518     3699     3698     1520
        1        1        1        1        0        0        0        0        8        0       10     1185     1112      618     1110     3693     3830     3700     1518
        1        1        1        1        0        0        0        0        8        0       11      610      856      612     1182     3266     3269     3705     3701
        1        1        1        1        0        0        0        0        8        0       12      618     1111     1182      612     3831     3703     3705     3704
        1        1        1        1        0        0        0        0        8        0       13     1110      618      612     1184     3700     3704     1519     3695
        1        1        1        1        0        0        0        0        8        0       14      612      627      628     1184     3268     3288     3694     1519
! ... 1366 like lines cut
!Material Id = {809931E8-71F1-4B6F-AA5C-D3B66EA98247}
/wb,elem,end               !  done creating elements
/com,*********** Send User Defined Coordinate System(s) ***********
csys,0
toffst,273.15,  ! Temperature offset from absolute zero
/com,*********** Set Reference Temperature ***********
tref,22.
/wb,mat,start              !  starting to send materials
/com,*********** Send Materials ***********
MP,EX,1,205000,	! tonne s^-2 mm^-1
MP,NUXY,1,0.28,

/wb,mat,end                !  done sending materials
/com,*********** Send Sheet Properties ***********
r,1,12.5

!************************* Model Summary ********************
!Surface Body,	S45C,	matid,	1
!************************* End Model Summary ********************
! get the diagonal of the bounding box. Needed later for other things
*get,_xmin,node,,mnloc,x
*get,_ymin,node,,mnloc,y
*get,_zmin,node,,mnloc,z
*get,_xmax,node,,mxloc,x
*get,_ymax,node,,mxloc,y
*get,_zmax,node,,mxloc,z
_ASMDIAG=(_xmax-_xmin)*(_xmax-_xmin)+(_ymax-_ymin)*(_ymax-_ymin)+(_zmax-_zmin)*(_zmax-_zmin)
_ASMDIAG=SQRT(_ASMDIAG)
/wb,contact,start          !  starting to send contact
/wb,contact,end            !  done creating contacts
/golist
/wb,load,start             !  starting to send loads
/com,*********** Fixed Supports ***********
CMBLOCK,_FIXEDSU,NODE,       41
(8i10)
      1187      1188      1189      1190      1191      1192      1193      1194
      1196      1198      1361      1362      1363      1364      1365      1366
      1367      1368      1369      1370      1375      4004      4005      4007
      4008      4009      4010      4022      4024      4027      4028      4029
      4030      4031      4032      4033      4034      4035      4036      4037
      4038
cmsel,s,_FIXEDSU
d,all,all
nsel,all
/com,********* Frictionless Supports X *********
CMBLOCK,_FRICSUX,NODE,       42
(8i10)
      1186      1195      1197      1199      1349      1350      1351      1352
      1353      1354      1355      1356      1357      1358      1359      1360
      1371      1372      1373      1374      1387      4001      4002      4003
      4006      4021      4023      4025      4026      4250      4251      4252
      4253      4254      4255      4256      4257      4258      4260      4261
      4262      4272
cmsel,s,_FRICSUX
d,all,ux,0
nsel,all
/com,********** Rotational Supports Z **********
CMBLOCK,_ROTSUZ ,NODE,       42
(8i10)
      1186      1195      1197      1199      1349      1350      1351      1352
      1353      1354      1355      1356      1357      1358      1359      1360
      1371      1372      1373      1374      1387      4001      4002      4003
      4006      4021      4023      4025      4026      4250      4251      4252
      4253      4254      4255      4256      4257      4258      4260      4261
      4262      4272
cmsel,s,_ROTSUZ
d,all,rotz,0
nsel,all
/com,*********** Define Pressure Vector Using Surface Effect Elements ***********
local,12,0,0.,0.,0.,0.,0.,0.
csys,0
et,2,153
keyop,2,3,10        ! get plane stress option and thickness from underlying element
eblock,10,,,6
(15i9)
     1386        2        2        2       12     1287     1509     4400
     1387        2        2        2       12     1292     1291     4194
     1388        2        2        2       12     1288     1287     4186
     1389        2        2        2       12     1289     1288     4188
     1390        2        2        2       12     1290     1289     4190
     1391        2        2        2       12     1291     1290     4192
-1
esel,s,type,,2
keyop,2,2,1                ! Apply load in local coordinate system
keyop,2,7,0                ! Use deformed area for application of load
keyop,2,11,2               ! Use real and not project area
esel,all
/com,*********** Define Vertex Force Using Follower Elements ***********
et,3,201
keyo,3,1,1           ! Keep the direction constant
keyo,3,2,1           ! Apply Forces only, not moment
mat,3
real,3
type,3
en,1392,1292
r,3
rmod,3,1,1.0,              ! FX
mat,4
real,4
type,3
en,1393,1292
r,4
rmod,4,2,1.0,              ! FY
/gst,on,on
fini
*get,_numnode,node,0,count
*get,_numelem,elem,0,count
*get, _MAXELEMNUM, elem, 0, NUM, MAX
*get, _MAXNODENUM, node, 0, NUM, MAX
*get, _MAXELEMTYPE, etyp, 0, NUM, MAX
*get, _MAXREALCONST, real, 0, NUM, MAX
/go
/wb,load,end               !  done creating loads
/com,--- Number of total nodes = %_numnode%
/com,--- Number of contact elements = 6
/com,--- Number of spring elements = 0
/com,--- Number of bearing elements = 0
/com,--- Number of solid elements = 1385
/com,--- Number of condensed parts = 0
/com,--- Number of total elements = %_numelem%
*get,_wallbsol,active,,time,wall
/com,****************************************************************************
/com,*************************    SOLUTION       ********************************
/com,****************************************************************************
/solu
antype,0                   ! static analysis
_thickRatio=  0     ! Ratio of thick parts in the model
eqsl,sparse,,,,,1
cntr,print,1               ! print out contact info and also make no initial contact an error
dmpoption,emat,no             ! Don't combine emat file for DANSYS
dmpoption,esav,no             ! Don't combine esav file for DANSYS
nldiag,cont,iter           ! print out contact info each equilibrium iteration
rescontrol,,none                 ! Do not keep any restart files
/com,****************************************************
/com,******************* SOLVE FOR LS 1 OF 1 ****************
esel,s,type,,2
nsle
sfe,all,1,pres,1,28.8
sfe,all,2,pres,1,0.
nsel,all
esel,all
esel,s,real,,3
sfe,all,1,pres,1,0.
esel,s,real,,4
sfe,all,1,pres,1,-550.
esel,all
/nopr
/gopr
nsub,1,1,1
time,1.
outres,erase
outres,all,none
outres,nsol,all,
outres,rsol,all
outres,eangl,all
outres,etmp,all
outres,veng,all
outres,strs,all,
outres,epel,all,
outres,eppl,all,
outres,cont,all,
! *********** WB SOLVE COMMAND ***********
! check interactive state
*get,ANSINTER_,active,,int
*if,ANSINTER_,ne,0,then
/eof
*endif
solve
/com *************** Write FE CONNECTORS ********* 
CEWRITE,file,ce,,INTE
/com,****************************************************
/com,*************** FINISHED SOLVE FOR LS 1 *************
*get,_wallasol,active,,time,wall
/nopr
*get,_numnode,node,0,count
*get,_numelem,elem,0,count
*get, _MAXELEMNUM, elem, 0, NUM, MAX
*get, _MAXNODENUM, node, 0, NUM, MAX,,,INTERNAL
*get, _MAXELEMTYPE, etyp, 0, NUM, MAX
*get, _MAXREALCONST, real, 0, NUM, MAX
/gopr
/post1
xmlo,ENCODING,ISO-8859-1
xmlo,parm
/xml,parm,xml
fini
/gopr
*get,_walldone,active,,time,wall
_preptime=(_wallbsol-_wallstrt)*3600
_solvtime=(_wallasol-_wallbsol)*3600
_posttime=(_walldone-_wallasol)*3600
_totaltim=(_walldone-_wallstrt)*3600
*get,_dlbratio,active,0,solu,dlbr
*get,_combtime,active,0,solu,comb
/com,--- Total number of nodes = %_numnode%
/com,--- Total number of elements = %_numelem%
/com,--- Element load balance ratio = %_dlbratio%
/com,--- Time to combine distributed files = %_combtime%
/wb,file,end               ! done with WB generated input
