/batch
/config,noeldb,1     ! force off writing results to database
*get,_wallstrt,active,,time,wall
! ANSYS input file written by Workbench version 2020 R2
! File used for geometry attach: C:\Users\shohei\Downloads\fem-izumi\5-3-1\4 point bending trial #2_files\dp0\SYS\DM\SYS.agdb
/title,4 point bending trial #2--Static Structural (A5)
*DIM,_wb_ProjectScratch_dir,string,248
_wb_ProjectScratch_dir(1) = 'C:\Users\shohei\Downloads\fem-izumi\5-3-1\_ProjectScratch\Scr5FEA\'
*DIM,_wb_SolverFiles_dir,string,248
_wb_SolverFiles_dir(1) = 'C:\Users\shohei\Downloads\fem-izumi\5-3-1\4 point bending trial #2_files\dp0\SYS\MECH\'
*DIM,_wb_userfiles_dir,string,248
_wb_userfiles_dir(1) = 'C:\Users\shohei\Downloads\fem-izumi\5-3-1\4 point bending trial #2_files\user_files\'
/com,--- Data in consistent NMM units. See Solving Units in the help system for more information.
/units,MPA
/nopr
/wb,file,start              !  signify a WB generated input file
/prep7
! Turn off shape checking because checks already performed inside WB mesher.
! See help system for more information.
SHPP,OFF,,NOWARN
/nolist
etcon,set             ! allow ANSYS to choose best KEYOP's for 180x elements
/com,*********** Nodes for the whole assembly ***********
nblock,3,,14256
(1i9,3e20.9e3)
        1    -6.420318907E+00     2.857487853E+01     0.000000000E+00
        2    -6.370807871E+00     2.820104306E+01     0.000000000E+00
        3    -6.022025273E+00     2.846995351E+01     0.000000000E+00
        4    -6.113861964E+00     2.809638937E+01     0.000000000E+00
        5    -1.152478276E+00     7.944433834E+00     0.000000000E+00
        6    -6.076973391E+00     5.103084552E+00     0.000000000E+00
        7     5.285276973E+00     3.077287811E+01     0.000000000E+00
        8    -1.688152972E-01     6.889873604E+00     0.000000000E+00
        9     7.340141707E+00     4.369501871E+01     0.000000000E+00
       10    -7.400652774E+00     4.001280053E+00     0.000000000E+00
       11     1.318553093E+01     1.003004918E+01     0.000000000E+00
       12     1.255748244E+01     9.760780694E+00     0.000000000E+00
       13     1.319168497E+01     8.957434565E+00     0.000000000E+00
       14     1.242175445E+01     8.996469658E+00     0.000000000E+00
       15     6.216618000E+00     6.021294146E+00     0.000000000E+00
       16     7.488854405E-02     3.531313401E+01     0.000000000E+00
       17     4.498064160E+00     9.332198964E+00     0.000000000E+00
       18    -4.442155745E+00     3.885199310E+01     0.000000000E+00
       19    -7.879128710E+00     2.611366748E+01     0.000000000E+00
       20     6.133729517E+00     1.962567003E+01     0.000000000E+00
! ... 12941 like lines cut
/wb,elem,start            !  set before creation of elements
/com,*********** Elements for Body 1 "Surface Body" ***********
et,1,183
keyo,1,3,3
eblock,19,solid,,4156
(19i9)
        1        1        1        1        0        0        0        0        8        0      391     1419     1207     2636     2636     6610     7513     2636     7514
        1        1        1        1        0        0        0        0        8        0      444     2609     1405     1672     1672     7666     7671     1672     7669
        1        1        1        1        0        0        0        0        8        0     1776      617     1036      578      578     5927     5837      578     5833
        1        1        1        1        0        0        0        0        8        0     1777      659      471      673      673     5610     5611      673     6015
        1        1        1        1        0        0        0        0        8        0     1778     4228     4229      454      454    12598     4460      454     4462
        1        1        1        1        0        0        0        0        8        0     1779     4231     4232      446      446    12601     4454      446     4457
        1        1        1        1        0        0        0        0        8        0     1780     4232     1034      446      446     4456     5547      446     4454
        1        1        1        1        0        0        0        0        8        0     1781     1034     4231      446      446     4458     4457      446     5547
        1        1        1        1        0        0        0        0        8        0     1782      552      553     1057     1057     5773     5779     1057     5776
        1        1        1        1        0        0        0        0        8        0     1783      803     4225      460      460     4467     4466      460     5578
        1        1        1        1        0        0        0        0        8        0     1784      599      600      551      551     5880     5771      551     5770
        1        1        1        1        0        0        0        0        8        0     1785      603      611      629      629     5887     5908      629     5888
        1        1        1        1        0        0        0        0        8        0     1786      582      286      285      285     5187     5183      285     5185
        1        1        1        1        0        0        0        0        8        0     1787      201      200      243      243     5000     5001      243     5003
        1        1        1        1        0        0        0        0        8        0     1788      152       72       70       70     4704     4698       70     4700
        1        1        1        1        0        0        0        0        8        0     1789     1056     1027      998      998     6383     6370      998     6371
        1        1        1        1        0        0        0        0        8        0     4151     3689     3427     3691     3691    11708    11714     3691    11717
        1        1        1        1        0        0        0        0        8        0     4152     3678     3679     3667     3667    11679    11678     3667    11674
        1        1        1        1        0        0        0        0        8        0     4153     3987     3495     3986     3986    12133    12131     3986    12134
        1        1        1        1        0        0        0        0        8        0     4154     3156     3380     3404     3404    11076    11158     3404    11154
! ... 4137 like lines cut
!Material Id = {67104DEC-A6D2-4315-8E25-D895A7A7D3D9}
/wb,elem,end               !  done creating elements
/com,*********** Send User Defined Coordinate System(s) ***********
csys,0
toffst,273.15,  ! Temperature offset from absolute zero
/com,*********** Set Reference Temperature ***********
tref,22.
/wb,mat,start              !  starting to send materials
/com,*********** Send Materials ***********
MP,EX,1,205000,	! tonne s^-2 mm^-1
MP,NUXY,1,0.28,

/wb,mat,end                !  done sending materials
/com,*********** Send Sheet Properties ***********
r,1,1.

!************************* Model Summary ********************
!Surface Body,	S45C,	matid,	1
!************************* End Model Summary ********************
! get the diagonal of the bounding box. Needed later for other things
*get,_xmin,node,,mnloc,x
*get,_ymin,node,,mnloc,y
*get,_zmin,node,,mnloc,z
*get,_xmax,node,,mxloc,x
*get,_ymax,node,,mxloc,y
*get,_zmax,node,,mxloc,z
_ASMDIAG=(_xmax-_xmin)*(_xmax-_xmin)+(_ymax-_ymin)*(_ymax-_ymin)+(_zmax-_zmin)*(_zmax-_zmin)
_ASMDIAG=SQRT(_ASMDIAG)
/wb,contact,start          !  starting to send contact
/wb,contact,end            !  done creating contacts
/golist
/wb,load,start             !  starting to send loads
/com,*********** Fixed Supports ***********
CMBLOCK,_FIXEDSU,NODE,        1
(8i10)
      3884
cmsel,s,_FIXEDSU
d,all,all
nsel,all
/com,******* Constant Zero Displacement Y *******
CMBLOCK,_DISPZEROUY,NODE,        1
(8i10)
      3942
cmsel,s,_DISPZEROUY
d,all,uy,0
nsel,all
/com,*********** Define Force Using Surface Effect Elements ***********
local,12,0,0.,0.,0.,0.,0.,0.
csys,0
et,2,153
keyop,2,3,10        ! get plane stress option and thickness from underlying element
eblock,10,,,16
(15i9)
     4157        2        2        2       12     3843     3862    11866
     4158        2        2        2       12     3844     3843    11832
     4159        2        2        2       12     3845     3844    11834
     4160        2        2        2       12     3846     3845    11836
     4161        2        2        2       12     3847     3846    11838
     4162        2        2        2       12     3848     3847    11840
     4163        2        2        2       12     3849     3848    11842
     4164        2        2        2       12     3850     3849    11844
     4165        2        2        2       12     3851     3850    11846
     4166        2        2        2       12     3852     3851    11848
     4167        2        2        2       12     3853     3852    11850
     4168        2        2        2       12     3854     3853    11852
     4169        2        2        2       12     3855     3854    11854
     4170        2        2        2       12     3856     3855    11856
     4171        2        2        2       12     3857     3856    11858
     4172        2        2        2       12     3883     3857    11922
-1
esel,s,type,,2
keyop,2,2,1                ! Apply load in local coordinate system
keyop,2,7,1                ! Use original area so load is constant in large deformation
keyop,2,11,2               ! Use real and not project area
esel,all
/com,*********** Define Force Using Surface Effect Elements ***********
local,13,0,0.,0.,0.,0.,0.,0.
csys,0
et,3,153
keyop,3,3,10        ! get plane stress option and thickness from underlying element
eblock,10,,,16
(15i9)
     4173        3        3        3       13     3899     3904    11963
     4174        3        3        3       13     3898     3899    11955
     4175        3        3        3       13     3897     3898    11953
     4176        3        3        3       13     3896     3897    11951
     4177        3        3        3       13     3895     3896    11949
     4178        3        3        3       13     3894     3895    11947
     4179        3        3        3       13     3893     3894    11945
     4180        3        3        3       13     3892     3893    11943
     4181        3        3        3       13     3891     3892    11941
     4182        3        3        3       13     3890     3891    11939
     4183        3        3        3       13     3889     3890    11937
     4184        3        3        3       13     3888     3889    11935
     4185        3        3        3       13     3887     3888    11933
     4186        3        3        3       13     3886     3887    11931
     4187        3        3        3       13     3885     3886    11929
     4188        3        3        3       13     3909     3885    11972
-1
esel,s,type,,3
keyop,3,2,1                ! Apply load in local coordinate system
keyop,3,7,1                ! Use original area so load is constant in large deformation
keyop,3,11,2               ! Use real and not project area
esel,all
/com,*********** Define Vertex Force Using Follower Elements ***********
et,4,201
keyo,4,1,1           ! Keep the direction constant
keyo,4,2,1           ! Apply Forces only, not moment
mat,4
real,4
type,4
en,4189,4402
r,4
rmod,4,1,1.0,              ! FX
mat,5
real,5
type,4
en,4190,4402
r,5
rmod,5,2,1.0,              ! FY
/com,*********** Define Vertex Force Using Follower Elements ***********
et,7,201
keyo,7,1,1           ! Keep the direction constant
keyo,7,2,1           ! Apply Forces only, not moment
mat,7
real,7
type,7
en,4191,4400
r,7
rmod,7,1,1.0,              ! FX
mat,8
real,8
type,7
en,4192,4400
r,8
rmod,8,2,1.0,              ! FY
/gst,on,on
fini
*get,_numnode,node,0,count
*get,_numelem,elem,0,count
*get, _MAXELEMNUM, elem, 0, NUM, MAX
*get, _MAXNODENUM, node, 0, NUM, MAX
*get, _MAXELEMTYPE, etyp, 0, NUM, MAX
*get, _MAXREALCONST, real, 0, NUM, MAX
/go
/wb,load,end               !  done creating loads
/com,--- Number of total nodes = %_numnode%
/com,--- Number of contact elements = 32
/com,--- Number of spring elements = 0
/com,--- Number of bearing elements = 0
/com,--- Number of solid elements = 4156
/com,--- Number of condensed parts = 0
/com,--- Number of total elements = %_numelem%
*get,_wallbsol,active,,time,wall
/com,****************************************************************************
/com,*************************    SOLUTION       ********************************
/com,****************************************************************************
/solu
antype,0                   ! static analysis
_thickRatio=  0     ! Ratio of thick parts in the model
eqsl,sparse,,,,,1
cntr,print,1               ! print out contact info and also make no initial contact an error
dmpoption,emat,no             ! Don't combine emat file for DANSYS
dmpoption,esav,no             ! Don't combine esav file for DANSYS
nldiag,cont,iter           ! print out contact info each equilibrium iteration
rescontrol,,none                 ! Do not keep any restart files
/com,****************************************************
/com,******************* SOLVE FOR LS 1 OF 1 ****************
esel,s,type,,2
nsle
sfe,all,1,pres,1,-20.8333333333342
sfe,all,2,pres,1,0.
esel,s,type,,3
nsle
sfe,all,1,pres,1,20.8333333333342
sfe,all,2,pres,1,0.
nsel,all
esel,all
esel,s,real,,4
sfe,all,1,pres,1,0.
esel,s,real,,5
sfe,all,1,pres,1,-500.
esel,s,real,,7
sfe,all,1,pres,1,0.
esel,s,real,,8
sfe,all,1,pres,1,-500.
esel,all
/nopr
/gopr
nsub,1,1,1
time,1.
outres,erase
outres,all,none
outres,nsol,all,
outres,rsol,all
outres,eangl,all
outres,etmp,all
outres,veng,all
outres,strs,all,
outres,epel,all,
outres,eppl,all,
outres,cont,all,
! *********** WB SOLVE COMMAND ***********
! check interactive state
*get,ANSINTER_,active,,int
*if,ANSINTER_,ne,0,then
/eof
*endif
solve
/com *************** Write FE CONNECTORS ********* 
CEWRITE,file,ce,,INTE
/com,****************************************************
/com,*************** FINISHED SOLVE FOR LS 1 *************
*get,_wallasol,active,,time,wall
/nopr
*get,_numnode,node,0,count
*get,_numelem,elem,0,count
*get, _MAXELEMNUM, elem, 0, NUM, MAX
*get, _MAXNODENUM, node, 0, NUM, MAX,,,INTERNAL
*get, _MAXELEMTYPE, etyp, 0, NUM, MAX
*get, _MAXREALCONST, real, 0, NUM, MAX
/gopr
/post1
xmlo,ENCODING,ISO-8859-1
xmlo,parm
/xml,parm,xml
fini
/gopr
*get,_walldone,active,,time,wall
_preptime=(_wallbsol-_wallstrt)*3600
_solvtime=(_wallasol-_wallbsol)*3600
_posttime=(_walldone-_wallasol)*3600
_totaltim=(_walldone-_wallstrt)*3600
*get,_dlbratio,active,0,solu,dlbr
*get,_combtime,active,0,solu,comb
/com,--- Total number of nodes = %_numnode%
/com,--- Total number of elements = %_numelem%
/com,--- Element load balance ratio = %_dlbratio%
/com,--- Time to combine distributed files = %_combtime%
/wb,file,end               ! done with WB generated input
