/batch
/config,noeldb,1     ! force off writing results to database
*get,_wallstrt,active,,time,wall
! ANSYS input file written by Workbench version 2020 R2
! File used for geometry attach: C:\Users\shohei\Downloads\fem-izumi\5-3\plate with a hole_files\dp0\SYS\DM\SYS.agdb
/title,plate with a hole--Static Structural (A5)
*DIM,_wb_ProjectScratch_dir,string,248
_wb_ProjectScratch_dir(1) = 'C:\Users\shohei\Downloads\fem-izumi\5-3\_ProjectScratch\ScrE73E\'
*DIM,_wb_SolverFiles_dir,string,248
_wb_SolverFiles_dir(1) = 'C:\Users\shohei\Downloads\fem-izumi\5-3\plate with a hole_files\dp0\SYS\MECH\'
*DIM,_wb_userfiles_dir,string,248
_wb_userfiles_dir(1) = 'C:\Users\shohei\Downloads\fem-izumi\5-3\plate with a hole_files\user_files\'
/com,--- Data in consistent NMM units. See Solving Units in the help system for more information.
/units,MPA
/nopr
/wb,file,start              !  signify a WB generated input file
/prep7
! Turn off shape checking because checks already performed inside WB mesher.
! See help system for more information.
SHPP,OFF,,NOWARN
/nolist
etcon,set             ! allow ANSYS to choose best KEYOP's for 180x elements
/com,*********** Nodes for the whole assembly ***********
nblock,3,,12438
(1i9,3e20.9e3)
        1     8.551636414E+00     3.413511443E+01     0.000000000E+00
        2     4.550009918E+01     8.205439541E+01     0.000000000E+00
        3     4.344370974E+01     8.096478274E+01     0.000000000E+00
        4     9.032981936E+00     3.387247559E+01     0.000000000E+00
        5     4.607477621E+01     7.802814464E+01     0.000000000E+00
        6     4.326861841E+01     7.771431546E+01     0.000000000E+00
        7     4.594024881E+01     7.432639245E+01     0.000000000E+00
        8     4.303213009E+01     7.449755893E+01     0.000000000E+00
        9     4.564239434E+01     7.111838215E+01     0.000000000E+00
       10     4.274675139E+01     7.122016985E+01     0.000000000E+00
       11     7.537184139E+00     3.095948059E+01     0.000000000E+00
       12     7.483897440E+00     3.133723153E+01     0.000000000E+00
       13     4.237537207E+01     1.201208024E+01     0.000000000E+00
       14     3.968638623E+00     3.606217666E+01     0.000000000E+00
       15     2.855912783E+01     1.244071632E+01     0.000000000E+00
       16     9.407349383E+00     3.344480402E+01     0.000000000E+00
       17     6.762497388E+00     3.410222659E+01     0.000000000E+00
       18     2.819532986E+01     1.472646222E+01     0.000000000E+00
       19     2.095050438E+01     2.321097732E+01     0.000000000E+00
       20     2.268261905E+01     2.223381659E+01     0.000000000E+00
! ... 11289 like lines cut
/wb,elem,start            !  set before creation of elements
/com,*********** Elements for Body 1 "Surface Body" ***********
et,1,183
keyo,1,3,3
eblock,19,solid,,3695
(19i9)
        1        1        1        1        0        0        0        0        8        0      149     1180     2850     1900     1900     9574     5846     1900    10867
        1        1        1        1        0        0        0        0        8        0      150     1175     1909     1899     1899     6040     5848     1899    10871
        1        1        1        1        0        0        0        0        8        0      151     1180     1899     2848     2848    10868     5847     2848     9569
        1        1        1        1        0        0        0        0        8        0      152      731     2403     2466     2466     8022     5850     2466     8250
        1        1        1        1        0        0        0        0        8        0      153      985     2466     1901     1901     8248     5849     1901     5906
        1        1        1        1        0        0        0        0        8        0      154     1450     2399     2401     2401    10805     5852     2401     8015
        1        1        1        1        0        0        0        0        8        0      155      967     2401     2398     2398     8013     5851     2398     5919
        1        1        1        1        0        0        0        0        8        0      156      993     2522     2525     2525    11066     5854     2525     8445
        1        1        1        1        0        0        0        0        8        0      157     1429     2525     2521     2521     8453     5853     2521     5878
        1        1        1        1        0        0        0        0        8        0     3425      182      115      111      111     4181     4169      111     4170
        1        1        1        1        0        0        0        0        8        0     3426       52       54       53       53     4014     4016       53     4013
        1        1        1        1        0        0        0        0        8        0     3427     1511      865     1316     1316     5416     5505     1316     5423
        1        1        1        1        0        0        0        0        8        0        1      828     1200        4        1     5803     3817     3809     3808
        1        1        1        1        0        0        0        0        8        0        2        1     1382     1203      828     5802     5806     5804     3808
        1        1        1        1        0        0        0        0        8        0        3     1382        1     3076     2818     5802     9452     9455     9453
        1        1        1        1        0        0        0        0        8        0        4     3076        1        4     2817     9452     3809     3816     9458
        1        1        1        1        0        0        0        0        8        0        5     1558     1199       16     1200     5232     6606     3810     5234
        1        1        1        1        0        0        0        0        8        0        6       16     2046        4     1200     3850     6615     3817     3810
        1        1        1        1        0        0        0        0        8        0        7        4     2046      930     2817     6615     6614     9457     3816
        1        1        1        1        0        0        0        0        8        0        8       56      658        3        2     4028     3813     3812     3811
! ... 3676 like lines cut
!Material Id = {B366C180-EF62-4126-82E9-17DCD2425BC4}
/wb,elem,end               !  done creating elements
/com,*********** Send User Defined Coordinate System(s) ***********
csys,0
toffst,273.15,  ! Temperature offset from absolute zero
/com,*********** Set Reference Temperature ***********
tref,22.
/wb,mat,start              !  starting to send materials
/com,*********** Send Materials ***********
MP,EX,1,250000,	! tonne s^-2 mm^-1
MP,NUXY,1,0.3,

/wb,mat,end                !  done sending materials
/com,*********** Send Sheet Properties ***********
r,1,1.

!************************* Model Summary ********************
!Surface Body,	S45C,	matid,	1
!************************* End Model Summary ********************
! get the diagonal of the bounding box. Needed later for other things
*get,_xmin,node,,mnloc,x
*get,_ymin,node,,mnloc,y
*get,_zmin,node,,mnloc,z
*get,_xmax,node,,mxloc,x
*get,_ymax,node,,mxloc,y
*get,_zmax,node,,mxloc,z
_ASMDIAG=(_xmax-_xmin)*(_xmax-_xmin)+(_ymax-_ymin)*(_ymax-_ymin)+(_zmax-_zmin)*(_zmax-_zmin)
_ASMDIAG=SQRT(_ASMDIAG)
/wb,contact,start          !  starting to send contact
/wb,contact,end            !  done creating contacts
/golist
/wb,load,start             !  starting to send loads
/com,********* Frictionless Supports X *********
CMBLOCK,_FRICSUX,NODE,      119
(8i10)
      3574      3575      3576      3577      3585      3586      3587      3616
      3617      3622      3623      3624      3625      3626      3627      3630
      3650      3659      3663      3664      3665      3666      3667      3668
      3669      3670      3671      3672      3673      3674      3675      3676
      3677      3678      3679      3680      3681      3682      3683      3684
      3685      3686      3687      3688      3689      3690      3691      3692
      3693      3694      3695      3715      3778      3780      3781      3799
      3801      3802      3803      3804     11079     11080     11083     11084
     11095     11096     11097     11098     11099     11100     11101     11102
     11111     11112     11113     11114     11115     11116     11117     11118
     11119     11120     11121     11122     11129     11130     11197     11198
     11199     11200     11201     11202     11203     11204     11205     11206
     11207     11208     11209     11210     11211     11212     11213     11214
     11215     11216     11217     11218     11219     11220     11239     11297
     11298     11301     11302     11303     11304     11305     11306
cmsel,s,_FRICSUX
d,all,ux,0
nsel,all
/com,********* Frictionless Supports Y *********
CMBLOCK,_FRICSUY,NODE,       79
(8i10)
      3578      3580      3582      3588      3589      3590      3591      3592
      3593      3618      3619      3620      3621      3645      3647      3648
      3651      3661      3756      3757      3758      3759      3760      3761
      3762      3763      3764      3765      3766      3767      3768      3769
      3779      3796      3797      3798      3800      3805      3806      3807
     11075     11076     11077     11078     11081     11082     11090     11091
     11103     11104     11105     11106     11107     11108     11109     11110
     11123     11124     11125     11126     11127     11128     11175     11176
     11177     11178     11281     11282     11283     11284     11286     11287
     11288     11295     11296     11299     11300     11307     11308
cmsel,s,_FRICSUY
d,all,uy,0
nsel,all
/com,********** Rotational Supports Z **********
CMBLOCK,_ROTSUZ ,NODE,      198
(8i10)
      3574      3575      3576      3577      3578      3580      3582      3585
      3586      3587      3588      3589      3590      3591      3592      3593
      3616      3617      3618      3619      3620      3621      3622      3623
      3624      3625      3626      3627      3630      3645      3647      3648
      3650      3651      3659      3661      3663      3664      3665      3666
      3667      3668      3669      3670      3671      3672      3673      3674
      3675      3676      3677      3678      3679      3680      3681      3682
      3683      3684      3685      3686      3687      3688      3689      3690
      3691      3692      3693      3694      3695      3715      3756      3757
      3758      3759      3760      3761      3762      3763      3764      3765
      3766      3767      3768      3769      3778      3779      3780      3781
      3796      3797      3798      3799      3800      3801      3802      3803
      3804      3805      3806      3807     11075     11076     11077     11078
     11079     11080     11081     11082     11083     11084     11090     11091
     11095     11096     11097     11098     11099     11100     11101     11102
     11103     11104     11105     11106     11107     11108     11109     11110
     11111     11112     11113     11114     11115     11116     11117     11118
     11119     11120     11121     11122     11123     11124     11125     11126
     11127     11128     11129     11130     11175     11176     11177     11178
     11197     11198     11199     11200     11201     11202     11203     11204
! ... 5 like lines cut
cmsel,s,_ROTSUZ
d,all,rotz,0
nsel,all
/com,*********** Define Force Using Surface Effect Elements ***********
local,12,0,0.,0.,0.,0.,0.,0.
csys,0
et,2,153
keyop,2,3,10        ! get plane stress option and thickness from underlying element
eblock,10,,,20
(15i9)
     3696        2        2        2       12     3715     3696    11240
     3697        2        2        2       12     3696     3697    11221
     3698        2        2        2       12     3697     3698    11222
     3699        2        2        2       12     3698     3699    11223
     3700        2        2        2       12     3699     3700    11224
     3701        2        2        2       12     3700     3701    11225
     3702        2        2        2       12     3701     3702    11226
     3703        2        2        2       12     3702     3703    11227
     3704        2        2        2       12     3703     3704    11228
     3705        2        2        2       12     3704     3705    11229
     3706        2        2        2       12     3705     3706    11230
     3707        2        2        2       12     3706     3707    11231
     3708        2        2        2       12     3707     3708    11232
     3709        2        2        2       12     3708     3709    11233
     3710        2        2        2       12     3709     3710    11234
     3711        2        2        2       12     3710     3711    11235
     3712        2        2        2       12     3711     3712    11236
     3713        2        2        2       12     3712     3713    11237
     3714        2        2        2       12     3713     3714    11238
     3715        2        2        2       12     3714     3755    11279
-1
esel,s,type,,2
keyop,2,2,1                ! Apply load in local coordinate system
keyop,2,7,1                ! Use original area so load is constant in large deformation
keyop,2,11,2               ! Use real and not project area
esel,all
/gst,on,on
fini
*get,_numnode,node,0,count
*get,_numelem,elem,0,count
*get, _MAXELEMNUM, elem, 0, NUM, MAX
*get, _MAXNODENUM, node, 0, NUM, MAX
*get, _MAXELEMTYPE, etyp, 0, NUM, MAX
*get, _MAXREALCONST, real, 0, NUM, MAX
/go
/wb,load,end               !  done creating loads
/com,--- Number of total nodes = %_numnode%
/com,--- Number of contact elements = 20
/com,--- Number of spring elements = 0
/com,--- Number of bearing elements = 0
/com,--- Number of solid elements = 3695
/com,--- Number of condensed parts = 0
/com,--- Number of total elements = %_numelem%
*get,_wallbsol,active,,time,wall
/com,****************************************************************************
/com,*************************    SOLUTION       ********************************
/com,****************************************************************************
/solu
antype,0                   ! static analysis
_thickRatio=  0     ! Ratio of thick parts in the model
eqsl,sparse,,,,,1
cntr,print,1               ! print out contact info and also make no initial contact an error
dmpoption,emat,no             ! Don't combine emat file for DANSYS
dmpoption,esav,no             ! Don't combine esav file for DANSYS
nldiag,cont,iter           ! print out contact info each equilibrium iteration
rescontrol,,none                 ! Do not keep any restart files
/com,****************************************************
/com,******************* SOLVE FOR LS 1 OF 3 ****************
esel,s,type,,2
nsle
sfe,all,1,pres,1,0.
sfe,all,2,pres,1,100.
nsel,all
esel,all
/nopr
/gopr
nsub,1,1,1
time,1.
outres,erase
outres,all,none
outres,nsol,all,
outres,rsol,all
outres,eangl,all
outres,etmp,all
outres,veng,all
outres,strs,all,
outres,epel,all,
outres,eppl,all,
outres,cont,all,
! *********** WB SOLVE COMMAND ***********
! check interactive state
*get,ANSINTER_,active,,int
*if,ANSINTER_,ne,0,then
/eof
*endif
solve
/com *************** Write FE CONNECTORS ********* 
CEWRITE,file,ce,,INTE
/com,****************************************************
/com,*************** FINISHED SOLVE FOR LS 1 *************
/com,****************************************************
/com,******************* SOLVE FOR LS 2 OF 3 ****************
/nopr
/gopr
nsub,1,1,1
time,2.
outres,erase
outres,all,none
outres,nsol,all,
outres,rsol,all
outres,eangl,all
outres,etmp,all
outres,veng,all
outres,strs,all,
outres,epel,all,
outres,eppl,all,
outres,cont,all,
solve
/com,****************************************************
/com,*************** FINISHED SOLVE FOR LS 2 *************
/com,****************************************************
/com,******************* SOLVE FOR LS 3 OF 3 ****************
/nopr
/gopr
nsub,1,1,1
time,3.
outres,erase
outres,all,none
outres,nsol,all,
outres,rsol,all
outres,eangl,all
outres,etmp,all
outres,veng,all
outres,strs,all,
outres,epel,all,
outres,eppl,all,
outres,cont,all,
solve
/com,****************************************************
/com,*************** FINISHED SOLVE FOR LS 3 *************
*get,_wallasol,active,,time,wall
/nopr
*get,_numnode,node,0,count
*get,_numelem,elem,0,count
*get, _MAXELEMNUM, elem, 0, NUM, MAX
*get, _MAXNODENUM, node, 0, NUM, MAX,,,INTERNAL
*get, _MAXELEMTYPE, etyp, 0, NUM, MAX
*get, _MAXREALCONST, real, 0, NUM, MAX
/gopr
/post1
xmlo,ENCODING,ISO-8859-1
xmlo,parm
/xml,parm,xml
fini
/gopr
*get,_walldone,active,,time,wall
_preptime=(_wallbsol-_wallstrt)*3600
_solvtime=(_wallasol-_wallbsol)*3600
_posttime=(_walldone-_wallasol)*3600
_totaltim=(_walldone-_wallstrt)*3600
*get,_dlbratio,active,0,solu,dlbr
*get,_combtime,active,0,solu,comb
/com,--- Total number of nodes = %_numnode%
/com,--- Total number of elements = %_numelem%
/com,--- Element load balance ratio = %_dlbratio%
/com,--- Time to combine distributed files = %_combtime%
/wb,file,end               ! done with WB generated input
