/batch
/config,noeldb,1     ! force off writing results to database
*get,_wallstrt,active,,time,wall
! ANSYS input file written by Workbench version 2020 R2
! File used for geometry attach: C:\Users\shohei\Downloads\fem-izumi\5-2-6\Large deflection case 2_files\dp0\SYS\DM\SYS.agdb
/title,Large deflection case 2--Static Structural (A5)
*DIM,_wb_ProjectScratch_dir,string,248
_wb_ProjectScratch_dir(1) = 'C:\Users\shohei\Downloads\fem-izumi\5-2-6\_ProjectScratch\ScrC7BC\'
*DIM,_wb_SolverFiles_dir,string,248
_wb_SolverFiles_dir(1) = 'C:\Users\shohei\Downloads\fem-izumi\5-2-6\Large deflection case 2_files\dp0\SYS\MECH\'
*DIM,_wb_userfiles_dir,string,248
_wb_userfiles_dir(1) = 'C:\Users\shohei\Downloads\fem-izumi\5-2-6\Large deflection case 2_files\user_files\'
/com,--- Data in consistent NMM units. See Solving Units in the help system for more information.
/units,MPA
/nopr
/wb,file,start              !  signify a WB generated input file
/prep7
! Turn off shape checking because checks already performed inside WB mesher.
! See help system for more information.
SHPP,OFF,,NOWARN
/nolist
etcon,set             ! allow ANSYS to choose best KEYOP's for 180x elements
/com,*********** Nodes for the whole assembly ***********
nblock,3,,685
(1i9,3e20.9e3)
        1     0.000000000E+00     0.000000000E+00     0.000000000E+00
        2     6.000000000E+02     0.000000000E+00     0.000000000E+00
        3     9.677419355E+00     0.000000000E+00     0.000000000E+00
        4     1.935483871E+01     0.000000000E+00     0.000000000E+00
        5     2.903225806E+01     0.000000000E+00     0.000000000E+00
        6     3.870967742E+01     0.000000000E+00     0.000000000E+00
        7     4.838709677E+01     0.000000000E+00     0.000000000E+00
        8     5.806451613E+01     0.000000000E+00     0.000000000E+00
        9     6.774193548E+01     0.000000000E+00     0.000000000E+00
       10     7.741935484E+01     0.000000000E+00     0.000000000E+00
       11     8.709677419E+01     0.000000000E+00     0.000000000E+00
       12     9.677419355E+01     0.000000000E+00     0.000000000E+00
       13     1.064516129E+02     0.000000000E+00     0.000000000E+00
       14     1.161290323E+02     0.000000000E+00     0.000000000E+00
       15     1.258064516E+02     0.000000000E+00     0.000000000E+00
       16     1.354838710E+02     0.000000000E+00     0.000000000E+00
       17     1.451612903E+02     0.000000000E+00     0.000000000E+00
       18     1.548387097E+02     0.000000000E+00     0.000000000E+00
       19     1.645161290E+02     0.000000000E+00     0.000000000E+00
       20     1.741935484E+02     0.000000000E+00     0.000000000E+00
! ... 604 like lines cut
/wb,elem,start            !  set before creation of elements
/com,*********** Elements for Body 1 "Surface Body" ***********
et,1,183
keyo,1,3,3
eblock,19,solid,,124
(19i9)
        1        1        1        1        0        0        0        0        8        0        1       63        2       64       66      253      254      377      376
        1        1        1        1        0        0        0        0        8        0        2       66       67       62       63      380      375      374      376
        1        1        1        1        0        0        0        0        8        0        3       67       68       61       62      381      373      372      375
        1        1        1        1        0        0        0        0        8        0        4       68       69       60       61      382      371      370      373
        1        1        1        1        0        0        0        0        8        0        5       69       70       59       60      383      369      368      371
        1        1        1        1        0        0        0        0        8        0        6       70       71       58       59      384      367      366      369
        1        1        1        1        0        0        0        0        8        0        7       71       72       57       58      385      365      364      367
        1        1        1        1        0        0        0        0        8        0        8       72       73       56       57      386      363      362      365
        1        1        1        1        0        0        0        0        8        0        9       73       74       55       56      387      361      360      363
        1        1        1        1        0        0        0        0        8        0       10       74       75       54       55      388      359      358      361
        1        1        1        1        0        0        0        0        8        0       11       75       76       53       54      389      357      356      359
        1        1        1        1        0        0        0        0        8        0       12       76       77       52       53      390      355      354      357
        1        1        1        1        0        0        0        0        8        0       13       77       78       51       52      391      353      352      355
        1        1        1        1        0        0        0        0        8        0       14       78       79       50       51      392      351      350      353
        1        1        1        1        0        0        0        0        8        0       15       79       80       49       50      393      349      348      351
        1        1        1        1        0        0        0        0        8        0       16       80       81       48       49      394      347      346      349
        1        1        1        1        0        0        0        0        8        0       17       81       82       47       48      395      345      344      347
        1        1        1        1        0        0        0        0        8        0       18       82       83       46       47      396      343      342      345
        1        1        1        1        0        0        0        0        8        0       19       83       84       45       46      397      341      340      343
        1        1        1        1        0        0        0        0        8        0       20       84       85       44       45      398      339      338      341
! ... 105 like lines cut
!Material Id = {94A60110-E327-451B-8D97-EC3EB836AE1C}
/wb,elem,end               !  done creating elements
/com,*********** Send User Defined Coordinate System(s) ***********
csys,0
toffst,273.15,  ! Temperature offset from absolute zero
/com,*********** Set Reference Temperature ***********
tref,22.
/wb,mat,start              !  starting to send materials
/com,*********** Send Materials ***********
MP,DENS,1,7.85e-09,	! tonne mm^-3
MP,C,1,434000000,	! mm^2 s^-2 C^-1
MP,EX,1,200000,	! tonne s^-2 mm^-1
MP,NUXY,1,0.3,

TB,BISO,1,1,
TBDATA,1,250,1450

/wb,mat,end                !  done sending materials
/com,*********** Send Sheet Properties ***********
r,1,10.

!************************* Model Summary ********************
!Surface Body,	Structural Steel NL,	matid,	1
!************************* End Model Summary ********************
! get the diagonal of the bounding box. Needed later for other things
*get,_xmin,node,,mnloc,x
*get,_ymin,node,,mnloc,y
*get,_zmin,node,,mnloc,z
*get,_xmax,node,,mxloc,x
*get,_ymax,node,,mxloc,y
*get,_zmax,node,,mxloc,z
_ASMDIAG=(_xmax-_xmin)*(_xmax-_xmin)+(_ymax-_ymin)*(_ymax-_ymin)+(_zmax-_zmin)*(_zmax-_zmin)
_ASMDIAG=SQRT(_ASMDIAG)
/wb,contact,start          !  starting to send contact
/wb,contact,end            !  done creating contacts
/golist
/wb,load,start             !  starting to send loads
/com,*********** Fixed Supports ***********
CMBLOCK,_FIXEDSU,NODE,        6
(8i10)
         1        65       127       189       252       441
cmsel,s,_FIXEDSU
d,all,all
nsel,all
/com,*********** Define Vertex Force Using Follower Elements ***********
et,2,201
keyo,2,1,1           ! Keep the direction constant
keyo,2,2,1           ! Apply Forces only, not moment
mat,2
real,2
type,2
en,125,64
r,2
rmod,2,1,1.0,              ! FX
mat,3
real,3
type,2
en,126,64
r,3
rmod,3,2,1.0,              ! FY
tblist
/gst,on,on
fini
*get,_numnode,node,0,count
*get,_numelem,elem,0,count
*get, _MAXELEMNUM, elem, 0, NUM, MAX
*get, _MAXNODENUM, node, 0, NUM, MAX
*get, _MAXELEMTYPE, etyp, 0, NUM, MAX
*get, _MAXREALCONST, real, 0, NUM, MAX
/go
/wb,load,end               !  done creating loads
/com,--- Number of total nodes = %_numnode%
/com,--- Number of contact elements = 0
/com,--- Number of spring elements = 0
/com,--- Number of bearing elements = 0
/com,--- Number of solid elements = 124
/com,--- Number of condensed parts = 0
/com,--- Number of total elements = %_numelem%
*get,_wallbsol,active,,time,wall
/com,****************************************************************************
/com,*************************    SOLUTION       ********************************
/com,****************************************************************************
/solu
antype,0                   ! static analysis
nlgeom,on                  ! Turn on Large Deformation Effects
_thickRatio=  0     ! Ratio of thick parts in the model
eqsl,sparse,,,,,1
cntr,print,1               ! print out contact info and also make no initial contact an error
dmpoption,emat,no             ! Don't combine emat file for DANSYS
dmpoption,esav,no             ! Don't combine esav file for DANSYS
nldiag,cont,iter           ! print out contact info each equilibrium iteration
rescontrol,define,last,last,,dele	   ! Program Controlled
/com,****************************************************
/com,******************* SOLVE FOR LS 1 OF 1 ****************
esel,s,real,,2
sfe,all,1,pres,1,0.
esel,s,real,,3
sfe,all,1,pres,1,-100.
esel,all
/nopr
/gopr
autots,on                  ! Workbench Program Controlled automatic time stepping
nsub,5,1000,1              ! due to presence of nonlinear materials
time,1.
outres,erase
outres,all,none
outres,nsol,all,
outres,rsol,all
outres,eangl,all
outres,etmp,all
outres,veng,all
outres,strs,all,
outres,epel,all,
outres,eppl,all,
outres,cont,all,
! *********** WB SOLVE COMMAND ***********
! check interactive state
*get,ANSINTER_,active,,int
*if,ANSINTER_,ne,0,then
/eof
*endif
solve
/com *************** Write FE CONNECTORS ********* 
CEWRITE,file,ce,,INTE
/com,****************************************************
/com,*************** FINISHED SOLVE FOR LS 1 *************
*get,_wallasol,active,,time,wall
/nopr
*get,_numnode,node,0,count
*get,_numelem,elem,0,count
*get, _MAXELEMNUM, elem, 0, NUM, MAX
*get, _MAXNODENUM, node, 0, NUM, MAX,,,INTERNAL
*get, _MAXELEMTYPE, etyp, 0, NUM, MAX
*get, _MAXREALCONST, real, 0, NUM, MAX
/gopr
/post1
xmlo,ENCODING,ISO-8859-1
xmlo,parm
/xml,parm,xml
fini
/gopr
*get,_walldone,active,,time,wall
_preptime=(_wallbsol-_wallstrt)*3600
_solvtime=(_wallasol-_wallbsol)*3600
_posttime=(_walldone-_wallasol)*3600
_totaltim=(_walldone-_wallstrt)*3600
*get,_dlbratio,active,0,solu,dlbr
*get,_combtime,active,0,solu,comb
/com,--- Total number of nodes = %_numnode%
/com,--- Total number of elements = %_numelem%
/com,--- Element load balance ratio = %_dlbratio%
/com,--- Time to combine distributed files = %_combtime%
/wb,file,end               ! done with WB generated input
