/batch
/config,noeldb,1     ! force off writing results to database
*get,_wallstrt,active,,time,wall
! ANSYS input file written by Workbench version 2020 R2
! File used for geometry attach: C:\Users\shohei\Downloads\fem-izumi\5-3-4\beam with a hole_files\dp0\SYS-1\DM\SYS-1.agdb
/title,beam with a hole--Static Structural (B5)
*DIM,_wb_ProjectScratch_dir,string,248
_wb_ProjectScratch_dir(1) = 'C:\Users\shohei\Downloads\fem-izumi\5-3-4\_ProjectScratch\Scr6674\'
*DIM,_wb_SolverFiles_dir,string,248
_wb_SolverFiles_dir(1) = 'C:\Users\shohei\Downloads\fem-izumi\5-3-4\beam with a hole_files\dp0\SYS-1\MECH\'
*DIM,_wb_userfiles_dir,string,248
_wb_userfiles_dir(1) = 'C:\Users\shohei\Downloads\fem-izumi\5-3-4\beam with a hole_files\user_files\'
/com,--- Data in consistent NMM units. See Solving Units in the help system for more information.
/units,MPA
/nopr
/wb,file,start              !  signify a WB generated input file
/prep7
! Turn off shape checking because checks already performed inside WB mesher.
! See help system for more information.
SHPP,OFF,,NOWARN
/nolist
etcon,set             ! allow ANSYS to choose best KEYOP's for 180x elements
/com,*********** Nodes for the whole assembly ***********
nblock,3,,21413
(1i9,3e20.9e3)
        1     7.657380192E+00     1.789292301E+02     4.274655195E+00
        2     4.071771628E+01     2.856010029E+01    -4.328759351E+00
        3     4.312064806E+00     1.994894864E+01     9.245835307E-01
        4     1.577544127E+01     1.896546390E+02    -5.161341512E+00
        5     7.152470675E+01     1.454251134E+02    -9.838105547E-01
        6     7.026820502E+01     1.181557782E+02     3.896230761E+00
        7     6.856430256E+01     6.750836907E+01     8.817980365E-01
        8     2.081731115E+01     3.272815863E+01     6.843085491E+00
        9     1.256939398E+01     3.063386350E+01     7.278084902E+00
       10     8.253516168E+01     1.143635572E+02    -3.049269856E+00
       11     6.736277655E+01     1.466347065E+02     6.255697472E-01
       12     8.318417787E+00     1.724310808E+02     5.777910803E+00
       13     7.369473484E+01     1.019076746E+02     4.793609043E+00
       14     6.522526441E+01     6.129922099E+01     1.422675344E+00
       15     2.580817569E+01     3.674403172E+01    -1.085750348E+00
       16     3.271337722E+01     3.380743683E+01    -1.403471682E+00
       17     7.707086216E+00     1.750626673E+02     3.914201043E+00
       18     5.290201085E+01     1.503694457E+02     4.627072350E+00
       19     6.613501144E+01     6.848726137E+01    -1.208689532E+00
       20     6.293047027E+01     1.398339005E+02    -1.126169626E+00
! ... 19448 like lines cut
/wb,elem,start            !  set before creation of elements
/com,*********** Elements for Body 1 "Solid" ***********
et,1,187
eblock,19,solid,,12214
(19i9)
        1        1        1        1        0        0        0        0       10        0        1       75        1       17      286    10751    10753     3673     3683
     2887     3170
        1        1        1        1        0        0        0        0       10        0        2        1     1259       17      286    10754     3677    10753     2887
    10704     3170
        1        1        1        1        0        0        0        0       10        0        3       75      286     1626        1     3683     3684     3675    10751
     2887    10756
        1        1        1        1        0        0        0        0       10        0        4      286     1259     1626        1    10704    12529     3684     2887
    10754    10756
        1        1        1        1        0        0        0        0       10        0        5     2279     1117     2211      375    15738    15453    15741     3707
     2888     3279
        1        1        1        1        0        0        0        0       10        0        6     1117      328     2211      375    10341     3694    15453     2888
     3280     3279
        1        1        1        1        0        0        0        0       10        0        7      374      328     1117      375     3688    10341    10346     3706
     3280     2888
        1        1        1        1        0        0        0        0       10        0        8      374     1117     2279      375    10346    15738     3693     3706
     2888     3707
        1        1        1        1        0        0        0        0       10        0        9       16      630      181      635     5764     5848     5843     2889
     5846     5847
        1        1        1        1        0        0        0        0       10        0       10      180       16      181      635     5841     5843     5839     5833
     2889     5847
! ... 24409 like lines cut
!Material Id = {153E3538-F480-49BF-B69F-4117D06B0340}
/wb,elem,end               !  done creating elements
/com,*********** Send User Defined Coordinate System(s) ***********
csys,0
toffst,273.15,  ! Temperature offset from absolute zero
/com,*********** Set Reference Temperature ***********
tref,22.
/wb,mat,start              !  starting to send materials
/com,*********** Send Materials ***********
MP,EX,1,205000,	! tonne s^-2 mm^-1
MP,NUXY,1,0.28,

/wb,mat,end                !  done sending materials
!************************* Model Summary ********************
!Solid,	S45C,	matid,	1
!************************* End Model Summary ********************
! get the diagonal of the bounding box. Needed later for other things
*get,_xmin,node,,mnloc,x
*get,_ymin,node,,mnloc,y
*get,_zmin,node,,mnloc,z
*get,_xmax,node,,mxloc,x
*get,_ymax,node,,mxloc,y
*get,_zmax,node,,mxloc,z
_ASMDIAG=(_xmax-_xmin)*(_xmax-_xmin)+(_ymax-_ymin)*(_ymax-_ymin)+(_zmax-_zmin)*(_zmax-_zmin)
_ASMDIAG=SQRT(_ASMDIAG)
/wb,contact,start          !  starting to send contact
/wb,contact,end            !  done creating contacts
/golist
/wb,load,start             !  starting to send loads
/com,*********** Fixed Supports ***********
CMBLOCK,_FIXEDSU,NODE,      125
(8i10)
      1913      1914      1915      1916      1917      1918      1919      1920
      1921      1922      1923      1924      1925      1926      1927      1928
      1929      2651      2652      2653      2654      2655      2656      2657
      2658      2659      2660      2661      2662      2663      2664      2674
      2675      2676      2677      2678      2688     14059     14060     14071
     14073     14078     14079     14084     14085     14086     14092     14096
     14101     14102     14107     14108     14109     14110     14114     14115
     14116     14117     14121     14122     14123     14128     14129     14130
     14131     14132     14133     14137     14138     14139     14140     14141
     14142     18156     18160     18161     18164     18167     18168     18172
     18175     18176     18178     18181     18185     18186     18189     18191
     18192     18195     18197     18199     18200     18205     18206     18209
     18210     18213     18214     18217     18220     18221     18225     18228
     18229     18231     18232     18237     18238     18296     18299     18300
     18301     18305     18308     18309     18312     18314     18317     18319
     18322     18324     18385     18388     18389
cmsel,s,_FIXEDSU
d,all,all
nsel,all
/com,********* Frictionless Supports X *********
CMBLOCK,_FRICSUX,NODE,      184
(8i10)
       288       294       787       793       800       801       890       893
       894       899       900       904       907       909       910       911
       914       917       918      1082      1083      1086      1088      1090
      1092      1093      1095      1097      1100      1101      1799      1800
      1801      1802      2703      2704      2744      2754      2755      2756
      2766      2767      2768      2769      2797      2798      2799      2800
      2801      2802      2848      2849      2855      2863      2864      2883
      3231      3233      3234      3290      3453      3455      3654      3665
      3867      3868      3870      3873      3875      3877      3878      3909
      3915      3935      3936      3937      4010      4021      4030      4032
      4034      4035      4037      4521      4523      4524      4527      4528
      4530      4531      4533      4534      7781      7783      7784      7787
      7788      7790      7791      7907      7909      7911      7913      7914
      7916      7917      7918      7919      8143      8150      8158      8160
      8162      8163      8165      8185      8188      8193      8194      8195
      8419      8421      8422      8424      8425      8427      8431      8436
      8438      8439      8440      8442      8444      8468      8485      8489
      8490      8491      8494      8495      8799      8802      8803      8806
      8807      8811      8813      8857      8861      8866      8867      8868
      9923      9930      9938      9939      9941      9943      9944     10144
     10145     10148     10149     10151     10377     10379     18853     18857
     18861     18865     18870     18873     18875     18878     19203     19205
     19209     19211     19255     19326     19329     19334     19439     19440

cmsel,s,_FRICSUX
d,all,ux,0
nsel,all
/com,*********** Define Pressure Vector Using Surface Effect Elements ***********
local,12,0,0.,0.,0.,0.,0.,0.
csys,0
et,2,154
eblock,10,,,57
(15i9)
    15179        2        2        2       12     2074     2846     2847     2847    19190    19200     2847    19196
    15180        2        2        2       12     2074     2845     2846     2846    19186    19193     2846    19190
    15181        2        2        2       12     2852     2086     2853     2853    19234    19240     2853    19243
    15182        2        2        2       12     2075     2834     2835     2835    19121    19131     2835    19127
    15183        2        2        2       12     2836     2076     2835     2835    19133    19128     2835    19136
    15184        2        2        2       12     2078     2833     2834     2834    19116    19125     2834    19122
    15185        2        2        2       12     2843     2082     2842     2842    19173    19167     2842    19176
    15186        2        2        2       12     2838     2073     2837     2837    19146    19139     2837    19150
    15187        2        2        2       12     2840     2085     2839     2839    19157    19151     2839    19161
    15188        2        2        2       12     2841     2084     2840     2840    19162    19156     2840    19165
    15189        2        2        2       12     2085     2838     2839     2839    19147    19154     2839    19151
    15190        2        2        2       12     2842     2084     2841     2841    19169    19162     2841    19172
    15191        2        2        2       12     2831     2080     2830     2830    19105    19101     2830    19108
    15192        2        2        2       12     2079     2829     2830     2830    19096    19104     2830    19100
    15193        2        2        2       12     2074     2856     2857     2857    19262    19275     2857    19270
    15194        2        2        2       12     2857     2072     2074     2074    19269    14973     2074    19270
    15195        2        2        2       12     2854     2072     2857     2857    19247    19269     2857    19274
    15196        2        2        2       12     2856     2074     2847     2847    19262    19196     2847    19265
    15197        2        2        2       12     2082     2072     2854     2854    15013    19247     2854    19248
    15198        2        2        2       12     2854     2083     2082     2082    19249    15019     2082    19248
! ... 38 like lines cut
esel,s,type,,2
keyop,2,2,1                ! Apply load in local coordinate system
keyop,2,7,0                ! Use deformed area for application of load
keyop,2,11,2               ! Use real and not project area
esel,all
/gst,on,on
fini
*get,_numnode,node,0,count
*get,_numelem,elem,0,count
*get, _MAXELEMNUM, elem, 0, NUM, MAX
*get, _MAXNODENUM, node, 0, NUM, MAX
*get, _MAXELEMTYPE, etyp, 0, NUM, MAX
*get, _MAXREALCONST, real, 0, NUM, MAX
/go
/wb,load,end               !  done creating loads
/com,--- Number of total nodes = %_numnode%
/com,--- Number of contact elements = 57
/com,--- Number of spring elements = 0
/com,--- Number of bearing elements = 0
/com,--- Number of solid elements = 12214
/com,--- Number of condensed parts = 0
/com,--- Number of total elements = %_numelem%
*get,_wallbsol,active,,time,wall
/com,****************************************************************************
/com,*************************    SOLUTION       ********************************
/com,****************************************************************************
/solu
antype,0                   ! static analysis
_thickRatio=  1     ! Ratio of thick parts in the model
eqsl,pcg,1e-8,,,,,,1
cntr,print,1               ! print out contact info and also make no initial contact an error
dmpoption,emat,no             ! Don't combine emat file for DANSYS
dmpoption,esav,no             ! Don't combine esav file for DANSYS
nldiag,cont,iter           ! print out contact info each equilibrium iteration
rescontrol,,none                 ! Do not keep any restart files
/com,****************************************************
/com,******************* SOLVE FOR LS 1 OF 1 ****************
esel,s,type,,2
nsle
sfe,all,1,pres,1,0.
sfe,all,2,pres,1,-40.
sfe,all,3,pres,1,0.
nsel,all
esel,all
/nopr
/gopr
nsub,1,1,1
time,1.
outres,erase
outres,all,none
outres,nsol,all,
outres,rsol,all
outres,eangl,all
outres,etmp,all
outres,veng,all
outres,strs,all,
outres,epel,all,
outres,eppl,all,
outres,cont,all,
! *********** WB SOLVE COMMAND ***********
! check interactive state
*get,ANSINTER_,active,,int
*if,ANSINTER_,ne,0,then
/eof
*endif
solve
/com *************** Write FE CONNECTORS ********* 
CEWRITE,file,ce,,INTE
/com,****************************************************
/com,*************** FINISHED SOLVE FOR LS 1 *************
*get,_wallasol,active,,time,wall
/nopr
*get,_numnode,node,0,count
*get,_numelem,elem,0,count
*get, _MAXELEMNUM, elem, 0, NUM, MAX
*get, _MAXNODENUM, node, 0, NUM, MAX,,,INTERNAL
*get, _MAXELEMTYPE, etyp, 0, NUM, MAX
*get, _MAXREALCONST, real, 0, NUM, MAX
/gopr
*get,_PCGITER,active,,solu,cgiter
/post1
xmlo,ENCODING,ISO-8859-1
xmlo,parm
/xml,parm,xml
fini
/gopr
*get,_walldone,active,,time,wall
_preptime=(_wallbsol-_wallstrt)*3600
_solvtime=(_wallasol-_wallbsol)*3600
_posttime=(_walldone-_wallasol)*3600
_totaltim=(_walldone-_wallstrt)*3600
*get,_dlbratio,active,0,solu,dlbr
*get,_combtime,active,0,solu,comb
/com,--- Total number of nodes = %_numnode%
/com,--- Total number of elements = %_numelem%
/com,--- Element load balance ratio = %_dlbratio%
/com,--- Time to combine distributed files = %_combtime%
/wb,file,end               ! done with WB generated input
